# generated using pymatgen
data_LiBr
_symmetry_space_group_name_H-M   'P 1'
_cell_length_a   13.59080029
_cell_length_b   13.59080029
_cell_length_c   6.16739273
_cell_angle_alpha   90.00000250
_cell_angle_beta   90.00000250
_cell_angle_gamma   120.00000334
_symmetry_Int_Tables_number   1
_chemical_formula_structural   LiBr
_chemical_formula_sum   'Li18 Br18'
_cell_volume   986.55722827
_cell_formula_units_Z   18
loop_
 _symmetry_equiv_pos_site_id
 _symmetry_equiv_pos_as_xyz
  1  'x, y, z'
loop_
 _atom_site_type_symbol
 _atom_site_label
 _atom_site_symmetry_multiplicity
 _atom_site_fract_x
 _atom_site_fract_y
 _atom_site_fract_z
 _atom_site_occupancy
  Br  Br0  1  0.92755393  0.44643255  0.52167136  1
  Br  Br1  1  0.92755393  0.48112138  0.02167136  1
  Br  Br2  1  0.88690078  0.73911273  0.68833803  1
  Br  Br3  1  0.85221195  0.11309922  0.68833803  1
  Br  Br4  1  0.22023412  0.81445471  0.85500469  1
  Br  Br5  1  0.55356745  0.48112138  0.52167136  1
  Br  Br6  1  0.85221195  0.73911273  0.18833803  1
  Br  Br7  1  0.88690078  0.14778805  0.18833803  1
  Br  Br8  1  0.51887862  0.07244607  0.52167136  1
  Br  Br9  1  0.51887862  0.44643255  0.02167136  1
  Br  Br10  1  0.26088727  0.11309922  0.18833803  1
  Br  Br11  1  0.26088727  0.14778805  0.68833803  1
  Br  Br12  1  0.18554529  0.40577940  0.85500469  1
  Br  Br13  1  0.18554529  0.77976588  0.35500469  1
  Br  Br14  1  0.55356745  0.07244607  0.02167136  1
  Br  Br15  1  0.22023412  0.40577940  0.35500469  1
  Br  Br16  1  0.59422060  0.77976588  0.85500469  1
  Br  Br17  1  0.59422060  0.81445471  0.35500469  1
  Li  Li18  1  0.11308732  0.56778797  0.37427057  1
  Li  Li19  1  0.11308732  0.54529936  0.87427057  1
  Li  Li20  1  0.76554537  0.55357935  0.54093723  1
  Li  Li21  1  0.78803398  0.23445463  0.54093723  1
  Li  Li22  1  0.09887870  0.87863269  0.70760390  1
  Li  Li23  1  0.43221203  0.54529936  0.37427057  1
  Li  Li24  1  0.78803398  0.55357935  0.04093723  1
  Li  Li25  1  0.76554537  0.21196602  0.04093723  1
  Li  Li26  1  0.45470064  0.88691268  0.37427057  1
  Li  Li27  1  0.45470064  0.56778797  0.87427057  1
  Li  Li28  1  0.44642065  0.23445463  0.04093723  1
  Li  Li29  1  0.44642065  0.21196602  0.54093723  1
  Li  Li30  1  0.12136731  0.22024601  0.70760390  1
  Li  Li31  1  0.12136731  0.90112130  0.20760390  1
  Li  Li32  1  0.43221203  0.88691268  0.87427057  1
  Li  Li33  1  0.09887870  0.22024601  0.20760390  1
  Li  Li34  1  0.77975399  0.90112130  0.70760390  1
  Li  Li35  1  0.77975399  0.87863269  0.20760390  1
