# generated using pymatgen
data_LiBr
_symmetry_space_group_name_H-M   'P 1'
_cell_length_a   8.10195923
_cell_length_b   8.10195923
_cell_length_c   5.00850105
_cell_angle_alpha   90.00000250
_cell_angle_beta   90.00000250
_cell_angle_gamma   90.00000250
_symmetry_Int_Tables_number   1
_chemical_formula_structural   LiBr
_chemical_formula_sum   'Li8 Br8'
_cell_volume   328.76674063
_cell_formula_units_Z   8
loop_
 _symmetry_equiv_pos_site_id
 _symmetry_equiv_pos_as_xyz
  1  'x, y, z'
loop_
 _atom_site_type_symbol
 _atom_site_label
 _atom_site_symmetry_multiplicity
 _atom_site_fract_x
 _atom_site_fract_y
 _atom_site_fract_z
 _atom_site_occupancy
  Li  Li0  1  0.32035974  0.60931075  0.06848675  1
  Li  Li1  1  0.39068925  0.32035974  0.93151325  1
  Li  Li2  1  0.82035974  0.10931075  0.43151325  1
  Li  Li3  1  0.60931075  0.67964026  0.93151325  1
  Li  Li4  1  0.17964026  0.89068925  0.43151325  1
  Li  Li5  1  0.67964026  0.39068925  0.06848675  1
  Li  Li6  1  0.89068925  0.82035974  0.56848675  1
  Li  Li7  1  0.10931075  0.17964026  0.56848675  1
  Br  Br8  1  0.72073495  0.08369827  0.85259122  1
  Br  Br9  1  0.91630173  0.72073495  0.14740878  1
  Br  Br10  1  0.22073495  0.58369827  0.64740878  1
  Br  Br11  1  0.08369827  0.27926505  0.14740878  1
  Br  Br12  1  0.77926505  0.41630173  0.64740878  1
  Br  Br13  1  0.27926505  0.91630173  0.85259122  1
  Br  Br14  1  0.41630173  0.22073495  0.35259122  1
  Br  Br15  1  0.58369827  0.77926505  0.35259122  1
