# generated using pymatgen
data_LiBr
_symmetry_space_group_name_H-M   'P 1'
_cell_length_a   10.89362526
_cell_length_b   6.23931265
_cell_length_c   6.30083609
_cell_angle_alpha   90.00000250
_cell_angle_beta   90.00000250
_cell_angle_gamma   90.00000250
_symmetry_Int_Tables_number   1
_chemical_formula_structural   LiBr
_chemical_formula_sum   'Li8 Br8'
_cell_volume   428.25985112
_cell_formula_units_Z   8
loop_
 _symmetry_equiv_pos_site_id
 _symmetry_equiv_pos_as_xyz
  1  'x, y, z'
loop_
 _atom_site_type_symbol
 _atom_site_label
 _atom_site_symmetry_multiplicity
 _atom_site_fract_x
 _atom_site_fract_y
 _atom_site_fract_z
 _atom_site_occupancy
  Li  Li0  1  0.19493032  0.15689874  0.66956502  1
  Li  Li1  1  0.19493032  0.34310126  0.16956502  1
  Li  Li2  1  0.69493032  0.34310126  0.33043498  1
  Li  Li3  1  0.30506969  0.84310126  0.16956502  1
  Li  Li4  1  0.80506968  0.65689874  0.83043498  1
  Li  Li5  1  0.30506968  0.65689874  0.66956502  1
  Li  Li6  1  0.69493031  0.15689874  0.83043498  1
  Li  Li7  1  0.80506968  0.84310126  0.33043498  1
  Br  Br8  1  0.96418846  0.55559132  0.22374117  1
  Br  Br9  1  0.96418846  0.94440868  0.72374117  1
  Br  Br10  1  0.46418846  0.94440868  0.77625883  1
  Br  Br11  1  0.53581154  0.44440869  0.72374117  1
  Br  Br12  1  0.03581154  0.05559132  0.27625883  1
  Br  Br13  1  0.53581154  0.05559132  0.22374117  1
  Br  Br14  1  0.46418846  0.55559132  0.27625883  1
  Br  Br15  1  0.03581154  0.44440868  0.77625883  1
