# generated using pymatgen
data_LiBr
_symmetry_space_group_name_H-M   'P 1'
_cell_length_a   10.79942513
_cell_length_b   10.79942513
_cell_length_c   6.49094296
_cell_angle_alpha   90.00000250
_cell_angle_beta   90.00000250
_cell_angle_gamma   90.00000250
_symmetry_Int_Tables_number   1
_chemical_formula_structural   LiBr
_chemical_formula_sum   'Li16 Br16'
_cell_volume   757.02298845
_cell_formula_units_Z   16
loop_
 _symmetry_equiv_pos_site_id
 _symmetry_equiv_pos_as_xyz
  1  'x, y, z'
loop_
 _atom_site_type_symbol
 _atom_site_label
 _atom_site_symmetry_multiplicity
 _atom_site_fract_x
 _atom_site_fract_y
 _atom_site_fract_z
 _atom_site_occupancy
  Li  Li0  1  0.64307523  0.51609498  0.76796490  1
  Li  Li1  1  0.01609498  0.64307523  0.01796490  1
  Li  Li2  1  0.35692477  0.51609498  0.26796490  1
  Li  Li3  1  0.35692477  0.48390502  0.76796490  1
  Li  Li4  1  0.98390502  0.35692477  0.01796490  1
  Li  Li5  1  0.48390502  0.14307523  0.01796490  1
  Li  Li6  1  0.51609498  0.85692477  0.01796490  1
  Li  Li7  1  0.98390502  0.64307523  0.51796490  1
  Li  Li8  1  0.01609498  0.35692477  0.51796490  1
  Li  Li9  1  0.85692477  0.98390502  0.26796490  1
  Li  Li10  1  0.48390502  0.85692477  0.51796490  1
  Li  Li11  1  0.14307523  0.01609498  0.26796490  1
  Li  Li12  1  0.51609498  0.14307523  0.51796490  1
  Li  Li13  1  0.85692477  0.01609498  0.76796490  1
  Li  Li14  1  0.14307523  0.98390502  0.76796490  1
  Li  Li15  1  0.64307523  0.48390502  0.26796490  1
  Br  Br16  1  0.65529245  0.10055333  0.77314061  1
  Br  Br17  1  0.60055333  0.65529245  0.02314061  1
  Br  Br18  1  0.34470755  0.10055333  0.27314061  1
  Br  Br19  1  0.34470755  0.89944667  0.77314061  1
  Br  Br20  1  0.39944667  0.34470755  0.02314061  1
  Br  Br21  1  0.89944667  0.15529245  0.02314061  1
  Br  Br22  1  0.10055333  0.84470755  0.02314061  1
  Br  Br23  1  0.39944667  0.65529245  0.52314061  1
  Br  Br24  1  0.60055333  0.34470755  0.52314061  1
  Br  Br25  1  0.84470755  0.39944667  0.27314061  1
  Br  Br26  1  0.89944667  0.84470755  0.52314061  1
  Br  Br27  1  0.15529245  0.60055333  0.27314061  1
  Br  Br28  1  0.10055333  0.15529245  0.52314061  1
  Br  Br29  1  0.84470755  0.60055333  0.77314061  1
  Br  Br30  1  0.15529245  0.39944667  0.77314061  1
  Br  Br31  1  0.65529245  0.89944667  0.27314061  1
