# generated using pymatgen
data_LiBr
_symmetry_space_group_name_H-M   'P 1'
_cell_length_a   14.15332603
_cell_length_b   14.15332603
_cell_length_c   6.71234226
_cell_angle_alpha   90.00000250
_cell_angle_beta   90.00000250
_cell_angle_gamma   120.00000334
_symmetry_Int_Tables_number   1
_chemical_formula_structural   LiBr
_chemical_formula_sum   'Li18 Br18'
_cell_volume   1164.45237884
_cell_formula_units_Z   18
loop_
 _symmetry_equiv_pos_site_id
 _symmetry_equiv_pos_as_xyz
  1  'x, y, z'
loop_
 _atom_site_type_symbol
 _atom_site_label
 _atom_site_symmetry_multiplicity
 _atom_site_fract_x
 _atom_site_fract_y
 _atom_site_fract_z
 _atom_site_occupancy
  Br  Br0  1  0.54257114  0.89231827  0.47629940  1
  Br  Br1  1  0.54257114  0.65025287  0.97629940  1
  Br  Br2  1  0.44101506  0.12409553  0.64296606  1
  Br  Br3  1  0.68308046  0.55898494  0.64296606  1
  Br  Br4  1  0.77434840  0.98358620  0.80963273  1
  Br  Br5  1  0.10768173  0.65025287  0.47629940  1
  Br  Br6  1  0.68308046  0.12409553  0.14296606  1
  Br  Br7  1  0.44101506  0.31691954  0.14296606  1
  Br  Br8  1  0.34974713  0.45742886  0.47629940  1
  Br  Br9  1  0.34974713  0.89231827  0.97629940  1
  Br  Br10  1  0.87590447  0.55898494  0.14296606  1
  Br  Br11  1  0.87590447  0.31691954  0.64296606  1
  Br  Br12  1  0.01641380  0.79076220  0.80963273  1
  Br  Br13  1  0.01641380  0.22565160  0.30963273  1
  Br  Br14  1  0.10768173  0.45742886  0.97629940  1
  Br  Br15  1  0.77434840  0.79076220  0.30963273  1
  Br  Br16  1  0.20923780  0.22565160  0.80963273  1
  Br  Br17  1  0.20923780  0.98358620  0.30963273  1
  Li  Li18  1  0.43644981  0.38735153  0.54835196  1
  Li  Li19  1  0.43644981  0.04909827  0.04835196  1
  Li  Li20  1  0.94598180  0.23021686  0.71501863  1
  Li  Li21  1  0.28423506  0.05401820  0.71501863  1
  Li  Li22  1  0.27931513  0.38243161  0.88168530  1
  Li  Li23  1  0.61264847  0.04909827  0.54835196  1
  Li  Li24  1  0.28423506  0.23021686  0.21501863  1
  Li  Li25  1  0.94598180  0.71576494  0.21501863  1
  Li  Li26  1  0.95090173  0.56355019  0.54835196  1
  Li  Li27  1  0.95090173  0.38735153  0.04835196  1
  Li  Li28  1  0.76978314  0.05401820  0.21501863  1
  Li  Li29  1  0.76978314  0.71576494  0.71501863  1
  Li  Li30  1  0.61756839  0.89688353  0.88168530  1
  Li  Li31  1  0.61756839  0.72068487  0.38168530  1
  Li  Li32  1  0.61264847  0.56355019  0.04835196  1
  Li  Li33  1  0.27931513  0.89688353  0.38168530  1
  Li  Li34  1  0.10311647  0.72068487  0.88168530  1
  Li  Li35  1  0.10311647  0.38243161  0.38168530  1
