# generated using pymatgen
data_LiBr
_symmetry_space_group_name_H-M   'P 1'
_cell_length_a   7.13968420
_cell_length_b   9.89071178
_cell_length_c   4.09915447
_cell_angle_alpha   90.00000250
_cell_angle_beta   114.36334875
_cell_angle_gamma   90.00000250
_symmetry_Int_Tables_number   1
_chemical_formula_structural   LiBr
_chemical_formula_sum   'Li4 Br4'
_cell_volume   263.69038386
_cell_formula_units_Z   4
loop_
 _symmetry_equiv_pos_site_id
 _symmetry_equiv_pos_as_xyz
  1  'x, y, z'
loop_
 _atom_site_type_symbol
 _atom_site_label
 _atom_site_symmetry_multiplicity
 _atom_site_fract_x
 _atom_site_fract_y
 _atom_site_fract_z
 _atom_site_occupancy
  Li  Li0  1  0.01529622  0.62245351  0.19608682  1
  Li  Li1  1  0.51529622  0.12245351  0.19608682  1
  Li  Li2  1  0.01529622  0.37754649  0.69608682  1
  Li  Li3  1  0.51529622  0.87754649  0.69608682  1
  Br  Br4  1  0.80111703  0.84733349  0.53192886  1
  Br  Br5  1  0.30111703  0.34733349  0.53192886  1
  Br  Br6  1  0.80111703  0.15266651  0.03192886  1
  Br  Br7  1  0.30111703  0.65266651  0.03192886  1
