# generated using pymatgen
data_NaBr
_symmetry_space_group_name_H-M   'P 1'
_cell_length_a   6.92070532
_cell_length_b   8.04612923
_cell_length_c   9.74801636
_cell_angle_alpha   90.00000250
_cell_angle_beta   90.00000250
_cell_angle_gamma   90.00000250
_symmetry_Int_Tables_number   1
_chemical_formula_structural   NaBr
_chemical_formula_sum   'Na8 Br8'
_cell_volume   542.81721207
_cell_formula_units_Z   8
loop_
 _symmetry_equiv_pos_site_id
 _symmetry_equiv_pos_as_xyz
  1  'x, y, z'
loop_
 _atom_site_type_symbol
 _atom_site_label
 _atom_site_symmetry_multiplicity
 _atom_site_fract_x
 _atom_site_fract_y
 _atom_site_fract_z
 _atom_site_occupancy
  Br  Br0  1  0.01533806  0.70993593  0.99297678  1
  Br  Br1  1  0.01533806  0.79006407  0.49297678  1
  Br  Br2  1  0.51533806  0.79006407  0.00702322  1
  Br  Br3  1  0.48466194  0.29006407  0.49297678  1
  Br  Br4  1  0.98466194  0.20993593  0.50702322  1
  Br  Br5  1  0.48466194  0.20993593  0.99297678  1
  Br  Br6  1  0.51533806  0.70993593  0.50702322  1
  Br  Br7  1  0.98466194  0.29006407  0.00702322  1
  Na  Na8  1  0.12342852  0.49164844  0.26758566  1
  Na  Na9  1  0.12342852  0.00835156  0.76758567  1
  Na  Na10  1  0.62342852  0.00835156  0.73241433  1
  Na  Na11  1  0.37657148  0.50835156  0.76758567  1
  Na  Na12  1  0.87657148  0.99164844  0.23241433  1
  Na  Na13  1  0.37657148  0.99164844  0.26758567  1
  Na  Na14  1  0.62342852  0.49164844  0.23241433  1
  Na  Na15  1  0.87657148  0.50835156  0.73241434  1
