# generated using pymatgen
data_NaBr
_symmetry_space_group_name_H-M   'P 1'
_cell_length_a   5.21325207
_cell_length_b   5.21325207
_cell_length_c   6.12474060
_cell_angle_alpha   90.00000250
_cell_angle_beta   90.00000250
_cell_angle_gamma   120.00000334
_symmetry_Int_Tables_number   1
_chemical_formula_structural   NaBr
_chemical_formula_sum   'Na3 Br3'
_cell_volume   144.15700978
_cell_formula_units_Z   3
loop_
 _symmetry_equiv_pos_site_id
 _symmetry_equiv_pos_as_xyz
  1  'x, y, z'
loop_
 _atom_site_type_symbol
 _atom_site_label
 _atom_site_symmetry_multiplicity
 _atom_site_fract_x
 _atom_site_fract_y
 _atom_site_fract_z
 _atom_site_occupancy
  Na  Na0  1  0.35001886  0.33927482  0.30149827  1
  Na  Na1  1  0.66072518  0.01074404  0.96816494  1
  Na  Na2  1  0.98925596  0.64998114  0.63483161  1
  Br  Br3  1  0.92766023  0.64623887  0.15036647  1
  Br  Br4  1  0.35376113  0.28142136  0.81703313  1
  Br  Br5  1  0.71857864  0.07233977  0.48369980  1
