# generated using pymatgen
data_LiBr
_symmetry_space_group_name_H-M   'P 1'
_cell_length_a   13.22323513
_cell_length_b   5.41550541
_cell_length_c   12.54623985
_cell_angle_alpha   90.00000250
_cell_angle_beta   90.00000250
_cell_angle_gamma   90.00000250
_symmetry_Int_Tables_number   1
_chemical_formula_structural   LiBr
_chemical_formula_sum   'Li16 Br16'
_cell_volume   898.44252625
_cell_formula_units_Z   16
loop_
 _symmetry_equiv_pos_site_id
 _symmetry_equiv_pos_as_xyz
  1  'x, y, z'
loop_
 _atom_site_type_symbol
 _atom_site_label
 _atom_site_symmetry_multiplicity
 _atom_site_fract_x
 _atom_site_fract_y
 _atom_site_fract_z
 _atom_site_occupancy
  Br  Br0  1  0.87807256  0.56884634  0.15806609  1
  Br  Br1  1  0.12192744  0.43115366  0.15806609  1
  Br  Br2  1  0.37192744  0.81884634  0.40806609  1
  Br  Br3  1  0.62192744  0.43115366  0.65806609  1
  Br  Br4  1  0.87192744  0.81884634  0.90806609  1
  Br  Br5  1  0.12807256  0.68115366  0.40806609  1
  Br  Br6  1  0.37807256  0.56884634  0.65806609  1
  Br  Br7  1  0.87192744  0.31884634  0.40806609  1
  Br  Br8  1  0.12807256  0.18115366  0.90806609  1
  Br  Br9  1  0.37807256  0.06884634  0.15806609  1
  Br  Br10  1  0.62192744  0.93115366  0.15806609  1
  Br  Br11  1  0.37192744  0.31884634  0.90806609  1
  Br  Br12  1  0.62807256  0.68115366  0.90806609  1
  Br  Br13  1  0.62807256  0.18115366  0.40806609  1
  Br  Br14  1  0.87807256  0.06884634  0.65806609  1
  Br  Br15  1  0.12192744  0.93115366  0.65806609  1
  Li  Li16  1  0.86360270  0.78968227  0.48924536  1
  Li  Li17  1  0.13639730  0.21031773  0.48924536  1
  Li  Li18  1  0.38639730  0.03968227  0.73924536  1
  Li  Li19  1  0.63639730  0.21031773  0.98924536  1
  Li  Li20  1  0.88639730  0.03968227  0.23924536  1
  Li  Li21  1  0.11360270  0.46031773  0.73924536  1
  Li  Li22  1  0.36360270  0.78968227  0.98924536  1
  Li  Li23  1  0.88639730  0.53968227  0.73924536  1
  Li  Li24  1  0.11360270  0.96031773  0.23924536  1
  Li  Li25  1  0.36360270  0.28968227  0.48924536  1
  Li  Li26  1  0.63639730  0.71031773  0.48924536  1
  Li  Li27  1  0.38639730  0.53968227  0.23924536  1
  Li  Li28  1  0.61360270  0.46031773  0.23924536  1
  Li  Li29  1  0.61360270  0.96031773  0.73924536  1
  Li  Li30  1  0.86360270  0.28968227  0.98924536  1
  Li  Li31  1  0.13639730  0.71031773  0.98924536  1
