# generated using pymatgen
data_LiBr
_symmetry_space_group_name_H-M   'P 1'
_cell_length_a   12.15826607
_cell_length_b   12.15826607
_cell_length_c   10.18197250
_cell_angle_alpha   90.00000250
_cell_angle_beta   90.00000250
_cell_angle_gamma   120.00000334
_symmetry_Int_Tables_number   1
_chemical_formula_structural   LiBr
_chemical_formula_sum   'Li18 Br18'
_cell_volume   1303.48435577
_cell_formula_units_Z   18
loop_
 _symmetry_equiv_pos_site_id
 _symmetry_equiv_pos_as_xyz
  1  'x, y, z'
loop_
 _atom_site_type_symbol
 _atom_site_label
 _atom_site_symmetry_multiplicity
 _atom_site_fract_x
 _atom_site_fract_y
 _atom_site_fract_z
 _atom_site_occupancy
  Br  Br0  1  0.20353149  0.22673777  0.42422233  1
  Br  Br1  1  0.20353149  0.97679373  0.92422233  1
  Br  Br2  1  0.10659557  0.46313518  0.59088899  1
  Br  Br3  1  0.35653961  0.89340443  0.59088899  1
  Br  Br4  1  0.43992890  0.31012706  0.75755566  1
  Br  Br5  1  0.77326224  0.97679373  0.42422233  1
  Br  Br6  1  0.35653961  0.46313518  0.09088899  1
  Br  Br7  1  0.10659557  0.64346039  0.09088899  1
  Br  Br8  1  0.02320627  0.79646851  0.42422233  1
  Br  Br9  1  0.02320627  0.22673777  0.92422233  1
  Br  Br10  1  0.53686482  0.89340443  0.09088899  1
  Br  Br11  1  0.53686482  0.64346039  0.59088899  1
  Br  Br12  1  0.68987294  0.12980184  0.75755566  1
  Br  Br13  1  0.68987294  0.56007110  0.25755566  1
  Br  Br14  1  0.77326224  0.79646851  0.92422233  1
  Br  Br15  1  0.43992890  0.12980184  0.25755566  1
  Br  Br16  1  0.87019816  0.56007110  0.75755566  1
  Br  Br17  1  0.87019816  0.31012706  0.25755566  1
  Li  Li18  1  0.01929055  0.15283318  0.22708281  1
  Li  Li19  1  0.01929055  0.86645736  0.72708281  1
  Li  Li20  1  0.18050015  0.64737612  0.39374948  1
  Li  Li21  1  0.46687597  0.81949985  0.39374948  1
  Li  Li22  1  0.51383348  0.19979070  0.56041614  1
  Li  Li23  1  0.84716682  0.86645736  0.22708281  1
  Li  Li24  1  0.46687597  0.64737612  0.89374948  1
  Li  Li25  1  0.18050015  0.53312403  0.89374948  1
  Li  Li26  1  0.13354264  0.98070945  0.22708281  1
  Li  Li27  1  0.13354264  0.15283318  0.72708281  1
  Li  Li28  1  0.35262388  0.81949985  0.89374948  1
  Li  Li29  1  0.35262388  0.53312403  0.39374948  1
  Li  Li30  1  0.80020930  0.31404279  0.56041614  1
  Li  Li31  1  0.80020930  0.48616652  0.06041614  1
  Li  Li32  1  0.84716682  0.98070945  0.72708281  1
  Li  Li33  1  0.51383348  0.31404279  0.06041614  1
  Li  Li34  1  0.68595721  0.48616652  0.56041614  1
  Li  Li35  1  0.68595721  0.19979070  0.06041614  1
