# generated using pymatgen
data_LiBr
_symmetry_space_group_name_H-M   'P 1'
_cell_length_a   8.99029541
_cell_length_b   8.99029541
_cell_length_c   6.34103012
_cell_angle_alpha   90.00000250
_cell_angle_beta   90.00000250
_cell_angle_gamma   90.00000250
_symmetry_Int_Tables_number   1
_chemical_formula_structural   LiBr
_chemical_formula_sum   'Li8 Br8'
_cell_volume   512.51636924
_cell_formula_units_Z   8
loop_
 _symmetry_equiv_pos_site_id
 _symmetry_equiv_pos_as_xyz
  1  'x, y, z'
loop_
 _atom_site_type_symbol
 _atom_site_label
 _atom_site_symmetry_multiplicity
 _atom_site_fract_x
 _atom_site_fract_y
 _atom_site_fract_z
 _atom_site_occupancy
  Br  Br0  1  0.56139416  0.74913369  0.70303464  1
  Br  Br1  1  0.75086631  0.93860584  0.20303464  1
  Br  Br2  1  0.06139416  0.75086631  0.79696536  1
  Br  Br3  1  0.24913369  0.06139416  0.20303464  1
  Br  Br4  1  0.93860584  0.24913369  0.79696536  1
  Br  Br5  1  0.43860585  0.25086631  0.70303464  1
  Br  Br6  1  0.25086631  0.56139416  0.29696536  1
  Br  Br7  1  0.74913369  0.43860585  0.29696536  1
  Li  Li8  1  0.16332033  0.26297522  0.54154134  1
  Li  Li9  1  0.23702478  0.33667967  0.04154134  1
  Li  Li10  1  0.66332033  0.23702478  0.95845866  1
  Li  Li11  1  0.76297522  0.66332033  0.04154134  1
  Li  Li12  1  0.33667967  0.76297522  0.95845866  1
  Li  Li13  1  0.83667967  0.73702478  0.54154134  1
  Li  Li14  1  0.73702478  0.16332033  0.45845866  1
  Li  Li15  1  0.26297522  0.83667967  0.45845866  1
