# generated using pymatgen
data_LiBr
_symmetry_space_group_name_H-M   'P 1'
_cell_length_a   11.29743099
_cell_length_b   11.29743099
_cell_length_c   6.31863976
_cell_angle_alpha   90.00000250
_cell_angle_beta   90.00000250
_cell_angle_gamma   90.00000250
_symmetry_Int_Tables_number   1
_chemical_formula_structural   LiBr
_chemical_formula_sum   'Li16 Br16'
_cell_volume   806.46029449
_cell_formula_units_Z   16
loop_
 _symmetry_equiv_pos_site_id
 _symmetry_equiv_pos_as_xyz
  1  'x, y, z'
loop_
 _atom_site_type_symbol
 _atom_site_label
 _atom_site_symmetry_multiplicity
 _atom_site_fract_x
 _atom_site_fract_y
 _atom_site_fract_z
 _atom_site_occupancy
  Br  Br0  1  0.93478161  0.78434986  0.99542063  1
  Br  Br1  1  0.28434986  0.93478161  0.24542063  1
  Br  Br2  1  0.06521839  0.78434986  0.49542063  1
  Br  Br3  1  0.06521839  0.21565014  0.99542063  1
  Br  Br4  1  0.71565014  0.06521839  0.24542063  1
  Br  Br5  1  0.21565014  0.43478161  0.24542063  1
  Br  Br6  1  0.78434986  0.56521839  0.24542063  1
  Br  Br7  1  0.71565014  0.93478161  0.74542063  1
  Br  Br8  1  0.28434986  0.06521839  0.74542063  1
  Br  Br9  1  0.56521839  0.71565014  0.49542063  1
  Br  Br10  1  0.21565014  0.56521839  0.74542063  1
  Br  Br11  1  0.43478161  0.28434986  0.49542063  1
  Br  Br12  1  0.78434986  0.43478161  0.74542063  1
  Br  Br13  1  0.56521839  0.28434986  0.99542063  1
  Br  Br14  1  0.43478161  0.71565014  0.99542063  1
  Br  Br15  1  0.93478161  0.21565014  0.49542063  1
  Li  Li16  1  0.36383882  0.50435388  0.93261176  1
  Li  Li17  1  0.00435388  0.36383882  0.18261176  1
  Li  Li18  1  0.63616118  0.50435388  0.43261176  1
  Li  Li19  1  0.63616118  0.49564612  0.93261176  1
  Li  Li20  1  0.99564612  0.63616118  0.18261176  1
  Li  Li21  1  0.49564612  0.86383882  0.18261176  1
  Li  Li22  1  0.50435388  0.13616118  0.18261176  1
  Li  Li23  1  0.99564612  0.36383882  0.68261176  1
  Li  Li24  1  0.00435388  0.63616118  0.68261176  1
  Li  Li25  1  0.13616118  0.99564612  0.43261176  1
  Li  Li26  1  0.49564612  0.13616118  0.68261176  1
  Li  Li27  1  0.86383882  0.00435388  0.43261176  1
  Li  Li28  1  0.50435388  0.86383882  0.68261176  1
  Li  Li29  1  0.13616118  0.00435388  0.93261176  1
  Li  Li30  1  0.86383882  0.99564612  0.93261176  1
  Li  Li31  1  0.36383882  0.49564612  0.43261176  1
