# generated using pymatgen
data_LiBr
_symmetry_space_group_name_H-M   'P 1'
_cell_length_a   6.56739378
_cell_length_b   6.01559448
_cell_length_c   5.27556086
_cell_angle_alpha   90.00000250
_cell_angle_beta   90.00000250
_cell_angle_gamma   90.00000250
_symmetry_Int_Tables_number   1
_chemical_formula_structural   LiBr
_chemical_formula_sum   'Li4 Br4'
_cell_volume   208.42041043
_cell_formula_units_Z   4
loop_
 _symmetry_equiv_pos_site_id
 _symmetry_equiv_pos_as_xyz
  1  'x, y, z'
loop_
 _atom_site_type_symbol
 _atom_site_label
 _atom_site_symmetry_multiplicity
 _atom_site_fract_x
 _atom_site_fract_y
 _atom_site_fract_z
 _atom_site_occupancy
  Br  Br0  1  0.33945215  0.88127884  0.70353818  1
  Br  Br1  1  0.83945215  0.61872116  0.70353818  1
  Br  Br2  1  0.66054785  0.11872116  0.20353818  1
  Br  Br3  1  0.16054785  0.38127884  0.20353818  1
  Li  Li4  1  0.94974184  0.29358679  0.85530627  1
  Li  Li5  1  0.44974184  0.20641321  0.85530627  1
  Li  Li6  1  0.05025816  0.70641321  0.35530627  1
  Li  Li7  1  0.55025816  0.79358679  0.35530627  1
