# generated using pymatgen
data_LiBr
_symmetry_space_group_name_H-M   'P 1'
_cell_length_a   9.02831078
_cell_length_b   9.02831078
_cell_length_c   5.63056850
_cell_angle_alpha   90.00000250
_cell_angle_beta   90.00000250
_cell_angle_gamma   90.00000250
_symmetry_Int_Tables_number   1
_chemical_formula_structural   LiBr
_chemical_formula_sum   'Li8 Br8'
_cell_volume   458.94986547
_cell_formula_units_Z   8
loop_
 _symmetry_equiv_pos_site_id
 _symmetry_equiv_pos_as_xyz
  1  'x, y, z'
loop_
 _atom_site_type_symbol
 _atom_site_label
 _atom_site_symmetry_multiplicity
 _atom_site_fract_x
 _atom_site_fract_y
 _atom_site_fract_z
 _atom_site_occupancy
  Br  Br0  1  0.65331507  0.43316976  0.93969125  1
  Br  Br1  1  0.06683024  0.84668493  0.43969125  1
  Br  Br2  1  0.84668493  0.93316976  0.93969125  1
  Br  Br3  1  0.93316976  0.15331507  0.43969125  1
  Br  Br4  1  0.15331507  0.06683024  0.93969125  1
  Br  Br5  1  0.34668493  0.56683024  0.93969125  1
  Br  Br6  1  0.43316976  0.34668493  0.43969125  1
  Br  Br7  1  0.56683024  0.65331507  0.43969125  1
  Li  Li8  1  0.84491056  0.58516395  0.67319757  1
  Li  Li9  1  0.91483605  0.65508944  0.17319757  1
  Li  Li10  1  0.65508944  0.08516395  0.67319757  1
  Li  Li11  1  0.08516395  0.34491056  0.17319757  1
  Li  Li12  1  0.34491056  0.91483605  0.67319757  1
  Li  Li13  1  0.15508944  0.41483605  0.67319757  1
  Li  Li14  1  0.58516395  0.15508944  0.17319757  1
  Li  Li15  1  0.41483605  0.84491056  0.17319757  1
