# generated using pymatgen
data_NaBr
_symmetry_space_group_name_H-M   'P 1'
_cell_length_a   13.47879791
_cell_length_b   13.47879791
_cell_length_c   7.17156363
_cell_angle_alpha   90.00000250
_cell_angle_beta   90.00000250
_cell_angle_gamma   120.00000334
_symmetry_Int_Tables_number   1
_chemical_formula_structural   NaBr
_chemical_formula_sum   'Na18 Br18'
_cell_volume   1128.35769984
_cell_formula_units_Z   18
loop_
 _symmetry_equiv_pos_site_id
 _symmetry_equiv_pos_as_xyz
  1  'x, y, z'
loop_
 _atom_site_type_symbol
 _atom_site_label
 _atom_site_symmetry_multiplicity
 _atom_site_fract_x
 _atom_site_fract_y
 _atom_site_fract_z
 _atom_site_occupancy
  Br  Br0  1  0.90941382  0.40258529  0.34639159  1
  Br  Br1  1  0.90941382  0.50682854  0.84639159  1
  Br  Br2  1  0.93074805  0.75725284  0.51305825  1
  Br  Br3  1  0.82650480  0.06925195  0.51305825  1
  Br  Br4  1  0.26408138  0.84016187  0.67972492  1
  Br  Br5  1  0.59741471  0.50682854  0.34639159  1
  Br  Br6  1  0.82650480  0.75725284  0.01305825  1
  Br  Br7  1  0.93074805  0.17349520  0.01305825  1
  Br  Br8  1  0.49317146  0.09058618  0.34639159  1
  Br  Br9  1  0.49317146  0.40258529  0.84639159  1
  Br  Br10  1  0.24274716  0.06925195  0.01305825  1
  Br  Br11  1  0.24274716  0.17349520  0.51305825  1
  Br  Br12  1  0.15983813  0.42391951  0.67972492  1
  Br  Br13  1  0.15983813  0.73591862  0.17972492  1
  Br  Br14  1  0.59741471  0.09058618  0.84639159  1
  Br  Br15  1  0.26408138  0.42391951  0.17972492  1
  Br  Br16  1  0.57608049  0.73591862  0.67972492  1
  Br  Br17  1  0.57608049  0.84016187  0.17972492  1
  Na  Na18  1  0.73405477  0.19280857  0.27926155  1
  Na  Na19  1  0.73405477  0.54124620  0.77926155  1
  Na  Na20  1  0.14052476  0.93261190  0.44592822  1
  Na  Na21  1  0.79208714  0.85947524  0.44592822  1
  Na  Na22  1  0.47385809  0.87457953  0.61259488  1
  Na  Na23  1  0.80719143  0.54124620  0.27926155  1
  Na  Na24  1  0.79208714  0.93261190  0.94592822  1
  Na  Na25  1  0.14052476  0.20791286  0.94592822  1
  Na  Na26  1  0.45875380  0.26594523  0.27926155  1
  Na  Na27  1  0.45875380  0.19280857  0.77926155  1
  Na  Na28  1  0.06738810  0.85947524  0.94592822  1
  Na  Na29  1  0.06738810  0.20791286  0.44592822  1
  Na  Na30  1  0.12542047  0.59927856  0.61259488  1
  Na  Na31  1  0.12542047  0.52614191  0.11259488  1
  Na  Na32  1  0.80719143  0.26594523  0.77926155  1
  Na  Na33  1  0.47385809  0.59927856  0.11259488  1
  Na  Na34  1  0.40072144  0.52614191  0.61259488  1
  Na  Na35  1  0.40072144  0.87457953  0.11259488  1
