# generated using pymatgen
data_LiBr
_symmetry_space_group_name_H-M   'P 1'
_cell_length_a   13.30189896
_cell_length_b   13.30189896
_cell_length_c   13.30189896
_cell_angle_alpha   90.00000250
_cell_angle_beta   90.00000250
_cell_angle_gamma   90.00000250
_symmetry_Int_Tables_number   1
_chemical_formula_structural   LiBr
_chemical_formula_sum   'Li48 Br48'
_cell_volume   2353.64486303
_cell_formula_units_Z   48
loop_
 _symmetry_equiv_pos_site_id
 _symmetry_equiv_pos_as_xyz
  1  'x, y, z'
loop_
 _atom_site_type_symbol
 _atom_site_label
 _atom_site_symmetry_multiplicity
 _atom_site_fract_x
 _atom_site_fract_y
 _atom_site_fract_z
 _atom_site_occupancy
  Br  Br0  1  0.09407875  0.84039861  0.98110569  1
  Br  Br1  1  0.09039861  0.34407875  0.23110569  1
  Br  Br2  1  0.59407875  0.65960139  0.01889431  1
  Br  Br3  1  0.90960139  0.15592125  0.23110569  1
  Br  Br4  1  0.40592125  0.84039861  0.01889431  1
  Br  Br5  1  0.26889431  0.09039861  0.65592125  1
  Br  Br6  1  0.26889431  0.90960139  0.84407875  1
  Br  Br7  1  0.40960139  0.34407875  0.76889431  1
  Br  Br8  1  0.59407875  0.34039861  0.48110569  1
  Br  Br9  1  0.59039861  0.84407875  0.73110569  1
  Br  Br10  1  0.98110569  0.90592125  0.65960139  1
  Br  Br11  1  0.15592125  0.23110569  0.90960139  1
  Br  Br12  1  0.01889431  0.59407875  0.65960139  1
  Br  Br13  1  0.84407875  0.73110569  0.59039861  1
  Br  Br14  1  0.15592125  0.76889431  0.59039861  1
  Br  Br15  1  0.48110569  0.59407875  0.34039861  1
  Br  Br16  1  0.84407875  0.26889431  0.90960139  1
  Br  Br17  1  0.34407875  0.76889431  0.40960139  1
  Br  Br18  1  0.01889431  0.40592125  0.84039861  1
  Br  Br19  1  0.09039861  0.65592125  0.26889431  1
  Br  Br20  1  0.84039861  0.98110569  0.09407875  1
  Br  Br21  1  0.15960139  0.48110569  0.40592125  1
  Br  Br22  1  0.73110569  0.59039861  0.84407875  1
  Br  Br23  1  0.34039861  0.51889431  0.90592125  1
  Br  Br24  1  0.23110569  0.90960139  0.15592125  1
  Br  Br25  1  0.15960139  0.51889431  0.09407875  1
  Br  Br26  1  0.51889431  0.90592125  0.34039861  1
  Br  Br27  1  0.59039861  0.15592125  0.76889431  1
  Br  Br28  1  0.40592125  0.15960139  0.48110569  1
  Br  Br29  1  0.09407875  0.15960139  0.51889431  1
  Br  Br30  1  0.40960139  0.65592125  0.73110569  1
  Br  Br31  1  0.90592125  0.34039861  0.51889431  1
  Br  Br32  1  0.76889431  0.59039861  0.15592125  1
  Br  Br33  1  0.76889431  0.40960139  0.34407875  1
  Br  Br34  1  0.65960139  0.98110569  0.90592125  1
  Br  Br35  1  0.23110569  0.09039861  0.34407875  1
  Br  Br36  1  0.90592125  0.65960139  0.98110569  1
  Br  Br37  1  0.90960139  0.84407875  0.26889431  1
  Br  Br38  1  0.84039861  0.01889431  0.40592125  1
  Br  Br39  1  0.73110569  0.40960139  0.65592125  1
  Br  Br40  1  0.65960139  0.01889431  0.59407875  1
  Br  Br41  1  0.34039861  0.48110569  0.59407875  1
  Br  Br42  1  0.65592125  0.26889431  0.09039861  1
  Br  Br43  1  0.51889431  0.09407875  0.15960139  1
  Br  Br44  1  0.34407875  0.23110569  0.09039861  1
  Br  Br45  1  0.48110569  0.40592125  0.15960139  1
  Br  Br46  1  0.65592125  0.73110569  0.40960139  1
  Br  Br47  1  0.98110569  0.09407875  0.84039861  1
  Li  Li48  1  0.85157827  0.51647457  0.52623223  1
  Li  Li49  1  0.76647457  0.10157827  0.77623223  1
  Li  Li50  1  0.35157827  0.98352543  0.47376777  1
  Li  Li51  1  0.23352543  0.39842173  0.77623223  1
  Li  Li52  1  0.64842173  0.51647457  0.47376777  1
  Li  Li53  1  0.72376777  0.76647457  0.89842173  1
  Li  Li54  1  0.72376777  0.23352543  0.60157827  1
  Li  Li55  1  0.73352543  0.10157827  0.22376777  1
  Li  Li56  1  0.35157827  0.01647457  0.02623223  1
  Li  Li57  1  0.26647457  0.60157827  0.27623223  1
  Li  Li58  1  0.52623223  0.14842173  0.98352543  1
  Li  Li59  1  0.39842173  0.77623223  0.23352543  1
  Li  Li60  1  0.47376777  0.35157827  0.98352543  1
  Li  Li61  1  0.60157827  0.27623223  0.26647457  1
  Li  Li62  1  0.39842173  0.22376777  0.26647457  1
  Li  Li63  1  0.02623223  0.35157827  0.01647457  1
  Li  Li64  1  0.60157827  0.72376777  0.23352543  1
  Li  Li65  1  0.10157827  0.22376777  0.73352543  1
  Li  Li66  1  0.47376777  0.64842173  0.51647457  1
  Li  Li67  1  0.76647457  0.89842173  0.72376777  1
  Li  Li68  1  0.51647457  0.52623223  0.85157827  1
  Li  Li69  1  0.48352543  0.02623223  0.64842173  1
  Li  Li70  1  0.27623223  0.26647457  0.60157827  1
  Li  Li71  1  0.01647457  0.97376777  0.14842173  1
  Li  Li72  1  0.77623223  0.23352543  0.39842173  1
  Li  Li73  1  0.48352543  0.97376777  0.85157827  1
  Li  Li74  1  0.97376777  0.14842173  0.01647457  1
  Li  Li75  1  0.26647457  0.39842173  0.22376777  1
  Li  Li76  1  0.64842173  0.48352543  0.02623223  1
  Li  Li77  1  0.85157827  0.48352543  0.97376777  1
  Li  Li78  1  0.73352543  0.89842173  0.27623223  1
  Li  Li79  1  0.14842173  0.01647457  0.97376777  1
  Li  Li80  1  0.22376777  0.26647457  0.39842173  1
  Li  Li81  1  0.22376777  0.73352543  0.10157827  1
  Li  Li82  1  0.98352543  0.52623223  0.14842173  1
  Li  Li83  1  0.77623223  0.76647457  0.10157827  1
  Li  Li84  1  0.14842173  0.98352543  0.52623223  1
  Li  Li85  1  0.23352543  0.60157827  0.72376777  1
  Li  Li86  1  0.51647457  0.47376777  0.64842173  1
  Li  Li87  1  0.27623223  0.73352543  0.89842173  1
  Li  Li88  1  0.98352543  0.47376777  0.35157827  1
  Li  Li89  1  0.01647457  0.02623223  0.35157827  1
  Li  Li90  1  0.89842173  0.72376777  0.76647457  1
  Li  Li91  1  0.97376777  0.85157827  0.48352543  1
  Li  Li92  1  0.10157827  0.77623223  0.76647457  1
  Li  Li93  1  0.02623223  0.64842173  0.48352543  1
  Li  Li94  1  0.89842173  0.27623223  0.73352543  1
  Li  Li95  1  0.52623223  0.85157827  0.51647457  1
