# generated using pymatgen
data_LiI
_symmetry_space_group_name_H-M   'P 1'
_cell_length_a   14.82498264
_cell_length_b   14.82498264
_cell_length_c   6.37125826
_cell_angle_alpha   90.00000250
_cell_angle_beta   90.00000250
_cell_angle_gamma   90.00000250
_symmetry_Int_Tables_number   1
_chemical_formula_structural   LiI
_chemical_formula_sum   'Li16 I16'
_cell_volume   1400.27584331
_cell_formula_units_Z   16
loop_
 _symmetry_equiv_pos_site_id
 _symmetry_equiv_pos_as_xyz
  1  'x, y, z'
loop_
 _atom_site_type_symbol
 _atom_site_label
 _atom_site_symmetry_multiplicity
 _atom_site_fract_x
 _atom_site_fract_y
 _atom_site_fract_z
 _atom_site_occupancy
  I  I0  1  0.88523674  0.62053484  0.81632358  1
  I  I1  1  0.12053484  0.88523674  0.06632358  1
  I  I2  1  0.11476326  0.62053484  0.31632358  1
  I  I3  1  0.11476326  0.37946516  0.81632358  1
  I  I4  1  0.87946516  0.11476326  0.06632358  1
  I  I5  1  0.37946516  0.38523674  0.06632358  1
  I  I6  1  0.62053484  0.61476326  0.06632358  1
  I  I7  1  0.87946516  0.88523674  0.56632358  1
  I  I8  1  0.12053484  0.11476326  0.56632358  1
  I  I9  1  0.61476326  0.87946516  0.31632358  1
  I  I10  1  0.37946516  0.61476326  0.56632358  1
  I  I11  1  0.38523674  0.12053484  0.31632358  1
  I  I12  1  0.62053484  0.38523674  0.56632358  1
  I  I13  1  0.61476326  0.12053484  0.81632358  1
  I  I14  1  0.38523674  0.87946516  0.81632358  1
  I  I15  1  0.88523674  0.37946516  0.31632358  1
  Li  Li16  1  0.79377812  0.36834587  0.91468376  1
  Li  Li17  1  0.86834587  0.79377812  0.16468376  1
  Li  Li18  1  0.20622188  0.36834587  0.41468376  1
  Li  Li19  1  0.20622188  0.63165413  0.91468376  1
  Li  Li20  1  0.13165413  0.20622188  0.16468376  1
  Li  Li21  1  0.63165413  0.29377812  0.16468376  1
  Li  Li22  1  0.36834587  0.70622188  0.16468376  1
  Li  Li23  1  0.13165413  0.79377812  0.66468376  1
  Li  Li24  1  0.86834587  0.20622188  0.66468376  1
  Li  Li25  1  0.70622188  0.13165413  0.41468376  1
  Li  Li26  1  0.63165413  0.70622188  0.66468376  1
  Li  Li27  1  0.29377812  0.86834587  0.41468376  1
  Li  Li28  1  0.36834587  0.29377812  0.66468376  1
  Li  Li29  1  0.70622188  0.86834587  0.91468376  1
  Li  Li30  1  0.29377812  0.13165413  0.91468376  1
  Li  Li31  1  0.79377812  0.63165413  0.41468376  1
