# generated using pymatgen
data_KI
_symmetry_space_group_name_H-M   'P 1'
_cell_length_a   12.88531876
_cell_length_b   4.36419582
_cell_length_c   8.31820965
_cell_angle_alpha   90.00000250
_cell_angle_beta   90.00000250
_cell_angle_gamma   90.00000250
_symmetry_Int_Tables_number   1
_chemical_formula_structural   KI
_chemical_formula_sum   'K4 I4'
_cell_volume   467.76665305
_cell_formula_units_Z   4
loop_
 _symmetry_equiv_pos_site_id
 _symmetry_equiv_pos_as_xyz
  1  'x, y, z'
loop_
 _atom_site_type_symbol
 _atom_site_label
 _atom_site_symmetry_multiplicity
 _atom_site_fract_x
 _atom_site_fract_y
 _atom_site_fract_z
 _atom_site_occupancy
  K  K0  1  0.11825374  0.38821611  0.17374229  1
  K  K1  1  0.61825374  0.61178389  0.17374229  1
  K  K2  1  0.88174626  0.61178389  0.67374229  1
  K  K3  1  0.38174626  0.38821611  0.67374229  1
  I  I4  1  0.65254205  0.05542891  0.64777239  1
  I  I5  1  0.15254205  0.94457109  0.64777239  1
  I  I6  1  0.34745795  0.94457109  0.14777239  1
  I  I7  1  0.84745795  0.05542891  0.14777239  1
