# generated using pymatgen
data_LiBr
_symmetry_space_group_name_H-M   'P 1'
_cell_length_a   7.42423630
_cell_length_b   5.33284903
_cell_length_c   9.98158455
_cell_angle_alpha   90.00000250
_cell_angle_beta   90.00000250
_cell_angle_gamma   90.00000250
_symmetry_Int_Tables_number   1
_chemical_formula_structural   LiBr
_chemical_formula_sum   'Li8 Br8'
_cell_volume   395.19420243
_cell_formula_units_Z   8
loop_
 _symmetry_equiv_pos_site_id
 _symmetry_equiv_pos_as_xyz
  1  'x, y, z'
loop_
 _atom_site_type_symbol
 _atom_site_label
 _atom_site_symmetry_multiplicity
 _atom_site_fract_x
 _atom_site_fract_y
 _atom_site_fract_z
 _atom_site_occupancy
  Br  Br0  1  0.07562804  0.77078199  0.41074305  1
  Br  Br1  1  0.07562804  0.72921801  0.91074305  1
  Br  Br2  1  0.57562804  0.72921801  0.58925695  1
  Br  Br3  1  0.42437196  0.22921801  0.91074305  1
  Br  Br4  1  0.92437196  0.27078199  0.08925695  1
  Br  Br5  1  0.42437196  0.27078199  0.41074305  1
  Br  Br6  1  0.57562804  0.77078199  0.08925695  1
  Br  Br7  1  0.92437196  0.22921801  0.58925695  1
  Li  Li8  1  0.66771564  0.34600997  0.25111766  1
  Li  Li9  1  0.66771564  0.15399003  0.75111766  1
  Li  Li10  1  0.16771564  0.15399003  0.74888234  1
  Li  Li11  1  0.83228436  0.65399003  0.75111766  1
  Li  Li12  1  0.33228436  0.84600997  0.24888234  1
  Li  Li13  1  0.83228436  0.84600997  0.25111766  1
  Li  Li14  1  0.16771564  0.34600997  0.24888234  1
  Li  Li15  1  0.33228436  0.65399003  0.74888234  1
