# generated using pymatgen
data_LiI
_symmetry_space_group_name_H-M   'P 1'
_cell_length_a   10.87275887
_cell_length_b   10.87275887
_cell_length_c   13.49372864
_cell_angle_alpha   90.00000250
_cell_angle_beta   90.00000250
_cell_angle_gamma   120.00000334
_symmetry_Int_Tables_number   1
_chemical_formula_structural   LiI
_chemical_formula_sum   'Li18 I18'
_cell_volume   1381.47204797
_cell_formula_units_Z   18
loop_
 _symmetry_equiv_pos_site_id
 _symmetry_equiv_pos_as_xyz
  1  'x, y, z'
loop_
 _atom_site_type_symbol
 _atom_site_label
 _atom_site_symmetry_multiplicity
 _atom_site_fract_x
 _atom_site_fract_y
 _atom_site_fract_z
 _atom_site_occupancy
  I  I0  1  0.75598762  0.84634503  0.77726754  1
  I  I1  1  0.75598762  0.90964260  0.27726754  1
  I  I2  1  0.48698831  0.91067904  0.94393420  1
  I  I3  1  0.42369074  0.51301169  0.94393420  1
  I  I4  1  0.82032164  0.24297593  0.11060087  1
  I  I5  1  0.15365497  0.90964260  0.77726754  1
  I  I6  1  0.42369074  0.91067904  0.44393420  1
  I  I7  1  0.48698831  0.57630926  0.44393420  1
  I  I8  1  0.09035740  0.24401238  0.77726754  1
  I  I9  1  0.09035740  0.84634503  0.27726754  1
  I  I10  1  0.08932096  0.51301169  0.44393420  1
  I  I11  1  0.08932096  0.57630926  0.94393420  1
  I  I12  1  0.75702407  0.57734571  0.11060087  1
  I  I13  1  0.75702407  0.17967836  0.61060087  1
  I  I14  1  0.15365497  0.24401238  0.27726754  1
  I  I15  1  0.82032164  0.57734571  0.61060087  1
  I  I16  1  0.42265429  0.17967836  0.11060087  1
  I  I17  1  0.42265429  0.24297593  0.61060087  1
  Li  Li18  1  0.41995282  0.86223181  0.16099383  1
  Li  Li19  1  0.41995282  0.55772101  0.66099383  1
  Li  Li20  1  0.47110152  0.24671385  0.32766050  1
  Li  Li21  1  0.77561232  0.52889848  0.32766050  1
  Li  Li22  1  0.80443486  0.89105434  0.49432717  1
  Li  Li23  1  0.13776819  0.55772101  0.16099383  1
  Li  Li24  1  0.77561232  0.24671385  0.82766050  1
  Li  Li25  1  0.47110152  0.22438768  0.82766050  1
  Li  Li26  1  0.44227899  0.58004718  0.16099383  1
  Li  Li27  1  0.44227899  0.86223181  0.66099383  1
  Li  Li28  1  0.75328615  0.52889848  0.82766050  1
  Li  Li29  1  0.75328615  0.22438768  0.32766050  1
  Li  Li30  1  0.10894566  0.91338051  0.49432717  1
  Li  Li31  1  0.10894566  0.19556514  0.99432717  1
  Li  Li32  1  0.13776819  0.58004718  0.66099383  1
  Li  Li33  1  0.80443486  0.91338051  0.99432717  1
  Li  Li34  1  0.08661949  0.19556514  0.49432717  1
  Li  Li35  1  0.08661949  0.89105434  0.99432717  1
