# generated using pymatgen
data_LiI
_symmetry_space_group_name_H-M   'P 1'
_cell_length_a   10.34080887
_cell_length_b   10.34080887
_cell_length_c   13.59374046
_cell_angle_alpha   90.00000250
_cell_angle_beta   90.00000250
_cell_angle_gamma   90.00000250
_symmetry_Int_Tables_number   1
_chemical_formula_structural   LiI
_chemical_formula_sum   'Li16 I16'
_cell_volume   1453.61031468
_cell_formula_units_Z   16
loop_
 _symmetry_equiv_pos_site_id
 _symmetry_equiv_pos_as_xyz
  1  'x, y, z'
loop_
 _atom_site_type_symbol
 _atom_site_label
 _atom_site_symmetry_multiplicity
 _atom_site_fract_x
 _atom_site_fract_y
 _atom_site_fract_z
 _atom_site_occupancy
  I  I0  1  0.98499858  0.26123457  0.49554977  1
  I  I1  1  0.23876543  0.48499858  0.00445023  1
  I  I2  1  0.98499858  0.76123457  0.75445023  1
  I  I3  1  0.01500142  0.73876543  0.49554977  1
  I  I4  1  0.76123457  0.51500142  0.00445023  1
  I  I5  1  0.73876543  0.48499858  0.74554977  1
  I  I6  1  0.26123457  0.51500142  0.74554977  1
  I  I7  1  0.23876543  0.98499858  0.24554977  1
  I  I8  1  0.76123457  0.01500142  0.24554977  1
  I  I9  1  0.51500142  0.23876543  0.99554977  1
  I  I10  1  0.26123457  0.01500142  0.50445023  1
  I  I11  1  0.48499858  0.76123457  0.99554977  1
  I  I12  1  0.73876543  0.98499858  0.50445023  1
  I  I13  1  0.48499858  0.26123457  0.25445023  1
  I  I14  1  0.51500142  0.73876543  0.25445023  1
  I  I15  1  0.01500142  0.23876543  0.75445023  1
  Li  Li16  1  0.78201783  0.07142964  0.96241844  1
  Li  Li17  1  0.42857036  0.28201783  0.53758156  1
  Li  Li18  1  0.78201783  0.57142964  0.28758156  1
  Li  Li19  1  0.21798217  0.92857036  0.96241844  1
  Li  Li20  1  0.57142964  0.71798217  0.53758156  1
  Li  Li21  1  0.92857036  0.28201783  0.21241844  1
  Li  Li22  1  0.07142964  0.71798217  0.21241844  1
  Li  Li23  1  0.42857036  0.78201783  0.71241844  1
  Li  Li24  1  0.57142964  0.21798217  0.71241844  1
  Li  Li25  1  0.71798217  0.42857036  0.46241844  1
  Li  Li26  1  0.07142964  0.21798217  0.03758156  1
  Li  Li27  1  0.28201783  0.57142964  0.46241844  1
  Li  Li28  1  0.92857036  0.78201783  0.03758156  1
  Li  Li29  1  0.28201783  0.07142964  0.78758156  1
  Li  Li30  1  0.71798217  0.92857036  0.78758156  1
  Li  Li31  1  0.21798217  0.42857036  0.28758156  1
