# generated using pymatgen
data_NaBr
_symmetry_space_group_name_H-M   'P 1'
_cell_length_a   9.51601887
_cell_length_b   9.51601887
_cell_length_c   10.06029129
_cell_angle_alpha   90.00000250
_cell_angle_beta   90.00000250
_cell_angle_gamma   90.00000250
_symmetry_Int_Tables_number   1
_chemical_formula_structural   NaBr
_chemical_formula_sum   'Na16 Br16'
_cell_volume   911.00580545
_cell_formula_units_Z   16
loop_
 _symmetry_equiv_pos_site_id
 _symmetry_equiv_pos_as_xyz
  1  'x, y, z'
loop_
 _atom_site_type_symbol
 _atom_site_label
 _atom_site_symmetry_multiplicity
 _atom_site_fract_x
 _atom_site_fract_y
 _atom_site_fract_z
 _atom_site_occupancy
  Br  Br0  1  0.67145127  0.89610386  0.41240381  1
  Br  Br1  1  0.39610386  0.67145127  0.66240381  1
  Br  Br2  1  0.32854873  0.89610386  0.91240381  1
  Br  Br3  1  0.32854873  0.10389614  0.41240381  1
  Br  Br4  1  0.60389614  0.32854873  0.66240381  1
  Br  Br5  1  0.10389614  0.17145127  0.66240381  1
  Br  Br6  1  0.89610386  0.82854873  0.66240381  1
  Br  Br7  1  0.60389614  0.67145127  0.16240381  1
  Br  Br8  1  0.39610386  0.32854873  0.16240381  1
  Br  Br9  1  0.82854873  0.60389614  0.91240381  1
  Br  Br10  1  0.10389614  0.82854873  0.16240381  1
  Br  Br11  1  0.17145127  0.39610386  0.91240381  1
  Br  Br12  1  0.89610386  0.17145127  0.16240381  1
  Br  Br13  1  0.82854873  0.39610386  0.41240381  1
  Br  Br14  1  0.17145127  0.60389614  0.41240381  1
  Br  Br15  1  0.67145127  0.10389614  0.91240381  1
  Na  Na16  1  0.38005874  0.83342528  0.34009805  1
  Na  Na17  1  0.33342528  0.38005874  0.59009805  1
  Na  Na18  1  0.61994126  0.83342528  0.84009805  1
  Na  Na19  1  0.61994126  0.16657472  0.34009805  1
  Na  Na20  1  0.66657472  0.61994126  0.59009805  1
  Na  Na21  1  0.16657472  0.88005874  0.59009805  1
  Na  Na22  1  0.83342528  0.11994126  0.59009805  1
  Na  Na23  1  0.66657472  0.38005874  0.09009805  1
  Na  Na24  1  0.33342528  0.61994126  0.09009805  1
  Na  Na25  1  0.11994126  0.66657472  0.84009805  1
  Na  Na26  1  0.16657472  0.11994126  0.09009805  1
  Na  Na27  1  0.88005874  0.33342528  0.84009805  1
  Na  Na28  1  0.83342528  0.88005874  0.09009805  1
  Na  Na29  1  0.11994126  0.33342528  0.34009805  1
  Na  Na30  1  0.88005874  0.66657472  0.34009805  1
  Na  Na31  1  0.38005874  0.16657472  0.84009805  1
