# generated using pymatgen
data_LiBr
_symmetry_space_group_name_H-M   'P 1'
_cell_length_a   4.39137363
_cell_length_b   4.39137363
_cell_length_c   9.27472115
_cell_angle_alpha   90.00000250
_cell_angle_beta   90.00000250
_cell_angle_gamma   120.00000334
_symmetry_Int_Tables_number   1
_chemical_formula_structural   LiBr
_chemical_formula_sum   'Li3 Br3'
_cell_volume   154.89316649
_cell_formula_units_Z   3
loop_
 _symmetry_equiv_pos_site_id
 _symmetry_equiv_pos_as_xyz
  1  'x, y, z'
loop_
 _atom_site_type_symbol
 _atom_site_label
 _atom_site_symmetry_multiplicity
 _atom_site_fract_x
 _atom_site_fract_y
 _atom_site_fract_z
 _atom_site_occupancy
  Li  Li0  1  0.55453110  0.35963851  0.68057539  1
  Li  Li1  1  0.64036149  0.19489259  0.01390872  1
  Li  Li2  1  0.80510741  0.44546890  0.34724206  1
  Br  Br3  1  0.25993305  0.95096469  0.15608307  1
  Br  Br4  1  0.04903531  0.30896837  0.48941640  1
  Br  Br5  1  0.69103163  0.74006695  0.82274973  1
