# generated using pymatgen
data_LiBr
_symmetry_space_group_name_H-M   'P 1'
_cell_length_a   12.55163383
_cell_length_b   12.55163383
_cell_length_c   7.14161205
_cell_angle_alpha   90.00000250
_cell_angle_beta   90.00000250
_cell_angle_gamma   120.00000334
_symmetry_Int_Tables_number   1
_chemical_formula_structural   LiBr
_chemical_formula_sum   'Li18 Br18'
_cell_volume   974.37783075
_cell_formula_units_Z   18
loop_
 _symmetry_equiv_pos_site_id
 _symmetry_equiv_pos_as_xyz
  1  'x, y, z'
loop_
 _atom_site_type_symbol
 _atom_site_label
 _atom_site_symmetry_multiplicity
 _atom_site_fract_x
 _atom_site_fract_y
 _atom_site_fract_z
 _atom_site_occupancy
  Li  Li0  1  0.87853442  0.82408871  0.32898744  1
  Li  Li1  1  0.87853442  0.05444570  0.82898744  1
  Li  Li2  1  0.50924462  0.78813225  0.49565411  1
  Li  Li3  1  0.27888763  0.49075538  0.49565411  1
  Li  Li4  1  0.84257795  0.38777904  0.66232077  1
  Li  Li5  1  0.17591129  0.05444570  0.32898744  1
  Li  Li6  1  0.27888763  0.78813225  0.99565411  1
  Li  Li7  1  0.50924462  0.72111237  0.99565411  1
  Li  Li8  1  0.94555430  0.12146558  0.32898744  1
  Li  Li9  1  0.94555430  0.82408871  0.82898744  1
  Li  Li10  1  0.21186775  0.49075538  0.99565411  1
  Li  Li11  1  0.21186775  0.72111237  0.49565411  1
  Li  Li12  1  0.61222096  0.45479892  0.66232077  1
  Li  Li13  1  0.61222096  0.15742205  0.16232077  1
  Li  Li14  1  0.17591129  0.12146558  0.82898744  1
  Li  Li15  1  0.84257795  0.45479892  0.16232077  1
  Li  Li16  1  0.54520108  0.15742205  0.66232077  1
  Li  Li17  1  0.54520108  0.38777904  0.16232077  1
  Br  Br18  1  0.84043984  0.61630424  0.42106581  1
  Br  Br19  1  0.84043984  0.22413560  0.92106581  1
  Br  Br20  1  0.71702909  0.82622683  0.58773248  1
  Br  Br21  1  0.10919774  0.28297091  0.58773248  1
  Br  Br22  1  0.05036243  0.55746893  0.75439915  1
  Br  Br23  1  0.38369576  0.22413560  0.42106581  1
  Br  Br24  1  0.10919774  0.82622683  0.08773248  1
  Br  Br25  1  0.71702909  0.89080226  0.08773248  1
  Br  Br26  1  0.77586440  0.15956016  0.42106581  1
  Br  Br27  1  0.77586440  0.61630424  0.92106581  1
  Br  Br28  1  0.17377317  0.28297091  0.08773248  1
  Br  Br29  1  0.17377317  0.89080226  0.58773248  1
  Br  Br30  1  0.44253107  0.49289350  0.75439915  1
  Br  Br31  1  0.44253107  0.94963757  0.25439915  1
  Br  Br32  1  0.38369576  0.15956016  0.92106581  1
  Br  Br33  1  0.05036243  0.49289350  0.25439915  1
  Br  Br34  1  0.50710650  0.94963757  0.75439915  1
  Br  Br35  1  0.50710650  0.55746893  0.25439915  1
