# generated using pymatgen
data_LiBr
_symmetry_space_group_name_H-M   'P 1'
_cell_length_a   13.60840988
_cell_length_b   5.12075996
_cell_length_c   6.63920212
_cell_angle_alpha   90.00000250
_cell_angle_beta   90.00000250
_cell_angle_gamma   90.00000250
_symmetry_Int_Tables_number   1
_chemical_formula_structural   LiBr
_chemical_formula_sum   'Li8 Br8'
_cell_volume   462.65545856
_cell_formula_units_Z   8
loop_
 _symmetry_equiv_pos_site_id
 _symmetry_equiv_pos_as_xyz
  1  'x, y, z'
loop_
 _atom_site_type_symbol
 _atom_site_label
 _atom_site_symmetry_multiplicity
 _atom_site_fract_x
 _atom_site_fract_y
 _atom_site_fract_z
 _atom_site_occupancy
  Br  Br0  1  0.40957797  0.27405673  0.46583855  1
  Br  Br1  1  0.90957797  0.22594327  0.46583855  1
  Br  Br2  1  0.59042203  0.27405673  0.96583855  1
  Br  Br3  1  0.59042203  0.72594327  0.46583855  1
  Br  Br4  1  0.40957797  0.72594327  0.96583855  1
  Br  Br5  1  0.09042203  0.77405673  0.46583855  1
  Br  Br6  1  0.09042203  0.22594327  0.96583855  1
  Br  Br7  1  0.90957797  0.77405673  0.96583855  1
  Li  Li8  1  0.28800893  0.19070303  0.09708744  1
  Li  Li9  1  0.78800893  0.30929697  0.09708744  1
  Li  Li10  1  0.71199107  0.19070303  0.59708744  1
  Li  Li11  1  0.71199107  0.80929697  0.09708744  1
  Li  Li12  1  0.28800893  0.80929697  0.59708744  1
  Li  Li13  1  0.21199107  0.69070303  0.09708744  1
  Li  Li14  1  0.21199107  0.30929697  0.59708744  1
  Li  Li15  1  0.78800893  0.69070303  0.59708744  1
