# generated using pymatgen
data_LiBr
_symmetry_space_group_name_H-M   'P 1'
_cell_length_a   10.02756310
_cell_length_b   10.02756310
_cell_length_c   7.41830730
_cell_angle_alpha   90.00000250
_cell_angle_beta   90.00000250
_cell_angle_gamma   90.00000250
_symmetry_Int_Tables_number   1
_chemical_formula_structural   LiBr
_chemical_formula_sum   'Li16 Br16'
_cell_volume   745.92579650
_cell_formula_units_Z   16
loop_
 _symmetry_equiv_pos_site_id
 _symmetry_equiv_pos_as_xyz
  1  'x, y, z'
loop_
 _atom_site_type_symbol
 _atom_site_label
 _atom_site_symmetry_multiplicity
 _atom_site_fract_x
 _atom_site_fract_y
 _atom_site_fract_z
 _atom_site_occupancy
  Br  Br0  1  0.01142413  0.24698281  0.80790144  1
  Br  Br1  1  0.74698281  0.01142413  0.05790144  1
  Br  Br2  1  0.98857587  0.24698281  0.30790144  1
  Br  Br3  1  0.98857587  0.75301719  0.80790144  1
  Br  Br4  1  0.25301719  0.98857587  0.05790144  1
  Br  Br5  1  0.75301719  0.51142413  0.05790144  1
  Br  Br6  1  0.24698281  0.48857587  0.05790144  1
  Br  Br7  1  0.25301719  0.01142413  0.55790144  1
  Br  Br8  1  0.74698281  0.98857587  0.55790144  1
  Br  Br9  1  0.48857587  0.25301719  0.30790144  1
  Br  Br10  1  0.75301719  0.48857587  0.55790144  1
  Br  Br11  1  0.51142413  0.74698281  0.30790144  1
  Br  Br12  1  0.24698281  0.51142413  0.55790144  1
  Br  Br13  1  0.48857587  0.74698281  0.80790144  1
  Br  Br14  1  0.51142413  0.25301719  0.80790144  1
  Br  Br15  1  0.01142413  0.75301719  0.30790144  1
  Li  Li16  1  0.64212555  0.14206865  0.53132689  1
  Li  Li17  1  0.64206865  0.64212555  0.78132689  1
  Li  Li18  1  0.35787445  0.14206865  0.03132689  1
  Li  Li19  1  0.35787445  0.85793135  0.53132689  1
  Li  Li20  1  0.35793135  0.35787445  0.78132689  1
  Li  Li21  1  0.85793135  0.14212555  0.78132689  1
  Li  Li22  1  0.14206865  0.85787445  0.78132689  1
  Li  Li23  1  0.35793135  0.64212555  0.28132689  1
  Li  Li24  1  0.64206865  0.35787445  0.28132689  1
  Li  Li25  1  0.85787445  0.35793135  0.03132689  1
  Li  Li26  1  0.85793135  0.85787445  0.28132689  1
  Li  Li27  1  0.14212555  0.64206865  0.03132689  1
  Li  Li28  1  0.14206865  0.14212555  0.28132689  1
  Li  Li29  1  0.85787445  0.64206865  0.53132689  1
  Li  Li30  1  0.14212555  0.35793135  0.53132689  1
  Li  Li31  1  0.64212555  0.85793135  0.03132689  1
