# generated using pymatgen
data_LiBr
_symmetry_space_group_name_H-M   'P 1'
_cell_length_a   8.05298805
_cell_length_b   11.84178543
_cell_length_c   8.56005192
_cell_angle_alpha   90.00000250
_cell_angle_beta   90.00000250
_cell_angle_gamma   90.00000250
_symmetry_Int_Tables_number   1
_chemical_formula_structural   LiBr
_chemical_formula_sum   'Li16 Br16'
_cell_volume   816.30158744
_cell_formula_units_Z   16
loop_
 _symmetry_equiv_pos_site_id
 _symmetry_equiv_pos_as_xyz
  1  'x, y, z'
loop_
 _atom_site_type_symbol
 _atom_site_label
 _atom_site_symmetry_multiplicity
 _atom_site_fract_x
 _atom_site_fract_y
 _atom_site_fract_z
 _atom_site_occupancy
  Li  Li0  1  0.68069567  0.91403949  0.41390669  1
  Li  Li1  1  0.31930433  0.08596051  0.41390669  1
  Li  Li2  1  0.56930433  0.16403949  0.66390669  1
  Li  Li3  1  0.81930433  0.08596051  0.91390669  1
  Li  Li4  1  0.06930433  0.16403949  0.16390669  1
  Li  Li5  1  0.93069567  0.33596051  0.66390669  1
  Li  Li6  1  0.18069567  0.91403949  0.91390669  1
  Li  Li7  1  0.06930433  0.66403949  0.66390669  1
  Li  Li8  1  0.93069567  0.83596051  0.16390669  1
  Li  Li9  1  0.18069567  0.41403949  0.41390669  1
  Li  Li10  1  0.81930433  0.58596051  0.41390669  1
  Li  Li11  1  0.56930433  0.66403949  0.16390669  1
  Li  Li12  1  0.43069567  0.33596051  0.16390669  1
  Li  Li13  1  0.43069567  0.83596051  0.66390669  1
  Li  Li14  1  0.68069567  0.41403949  0.91390669  1
  Li  Li15  1  0.31930433  0.58596051  0.91390669  1
  Br  Br16  1  0.95471483  0.30780526  0.94168216  1
  Br  Br17  1  0.04528517  0.69219474  0.94168216  1
  Br  Br18  1  0.29528517  0.55780526  0.19168216  1
  Br  Br19  1  0.54528517  0.69219474  0.44168216  1
  Br  Br20  1  0.79528517  0.55780526  0.69168216  1
  Br  Br21  1  0.20471483  0.94219474  0.19168216  1
  Br  Br22  1  0.45471483  0.30780526  0.44168216  1
  Br  Br23  1  0.79528517  0.05780526  0.19168216  1
  Br  Br24  1  0.20471483  0.44219474  0.69168216  1
  Br  Br25  1  0.45471483  0.80780526  0.94168216  1
  Br  Br26  1  0.54528517  0.19219474  0.94168216  1
  Br  Br27  1  0.29528517  0.05780526  0.69168216  1
  Br  Br28  1  0.70471483  0.94219474  0.69168216  1
  Br  Br29  1  0.70471483  0.44219474  0.19168216  1
  Br  Br30  1  0.95471483  0.80780526  0.44168216  1
  Br  Br31  1  0.04528517  0.19219474  0.44168216  1
