# generated using pymatgen
data_LiI
_symmetry_space_group_name_H-M   'P 1'
_cell_length_a   11.15025330
_cell_length_b   11.15025330
_cell_length_c   13.43523502
_cell_angle_alpha   90.00000250
_cell_angle_beta   90.00000250
_cell_angle_gamma   90.00000250
_symmetry_Int_Tables_number   1
_chemical_formula_structural   LiI
_chemical_formula_sum   'Li16 I16'
_cell_volume   1670.37789598
_cell_formula_units_Z   16
loop_
 _symmetry_equiv_pos_site_id
 _symmetry_equiv_pos_as_xyz
  1  'x, y, z'
loop_
 _atom_site_type_symbol
 _atom_site_label
 _atom_site_symmetry_multiplicity
 _atom_site_fract_x
 _atom_site_fract_y
 _atom_site_fract_z
 _atom_site_occupancy
  I  I0  1  0.96064252  0.72606337  0.86343586  1
  I  I1  1  0.27393663  0.96064252  0.86343586  1
  I  I2  1  0.03935748  0.72606337  0.13656414  1
  I  I3  1  0.77393663  0.46064252  0.36343586  1
  I  I4  1  0.53935748  0.22606337  0.63656414  1
  I  I5  1  0.22606337  0.53935748  0.36343586  1
  I  I6  1  0.46064252  0.22606337  0.36343586  1
  I  I7  1  0.53935748  0.77393663  0.36343586  1
  I  I8  1  0.77393663  0.53935748  0.63656414  1
  I  I9  1  0.46064252  0.77393663  0.63656414  1
  I  I10  1  0.22606337  0.46064252  0.63656414  1
  I  I11  1  0.03935748  0.27393663  0.86343586  1
  I  I12  1  0.72606337  0.03935748  0.86343586  1
  I  I13  1  0.27393663  0.03935748  0.13656414  1
  I  I14  1  0.96064252  0.27393663  0.13656414  1
  I  I15  1  0.72606337  0.96064252  0.13656414  1
  Li  Li16  1  0.92364407  0.16310617  0.58459456  1
  Li  Li17  1  0.83689383  0.92364407  0.58459456  1
  Li  Li18  1  0.07635593  0.16310617  0.41540544  1
  Li  Li19  1  0.33689383  0.42364407  0.08459456  1
  Li  Li20  1  0.57635593  0.66310617  0.91540544  1
  Li  Li21  1  0.66310617  0.57635593  0.08459456  1
  Li  Li22  1  0.42364407  0.66310617  0.08459456  1
  Li  Li23  1  0.57635593  0.33689383  0.08459456  1
  Li  Li24  1  0.33689383  0.57635593  0.91540544  1
  Li  Li25  1  0.42364407  0.33689383  0.91540544  1
  Li  Li26  1  0.66310617  0.42364407  0.91540544  1
  Li  Li27  1  0.07635593  0.83689383  0.58459456  1
  Li  Li28  1  0.16310617  0.07635593  0.58459456  1
  Li  Li29  1  0.83689383  0.07635593  0.41540544  1
  Li  Li30  1  0.92364407  0.83689383  0.41540544  1
  Li  Li31  1  0.16310617  0.92364407  0.41540544  1
