# generated using pymatgen
data_NaI
_symmetry_space_group_name_H-M   'P 1'
_cell_length_a   5.80476284
_cell_length_b   7.57876492
_cell_length_c   6.86482334
_cell_angle_alpha   90.00000250
_cell_angle_beta   90.00000250
_cell_angle_gamma   90.00000250
_symmetry_Int_Tables_number   1
_chemical_formula_structural   NaI
_chemical_formula_sum   'Na4 I4'
_cell_volume   302.00371301
_cell_formula_units_Z   4
loop_
 _symmetry_equiv_pos_site_id
 _symmetry_equiv_pos_as_xyz
  1  'x, y, z'
loop_
 _atom_site_type_symbol
 _atom_site_label
 _atom_site_symmetry_multiplicity
 _atom_site_fract_x
 _atom_site_fract_y
 _atom_site_fract_z
 _atom_site_occupancy
  I  I0  1  0.61377704  0.30533358  0.50539957  1
  I  I1  1  0.11377704  0.69466642  0.50539957  1
  I  I2  1  0.38622296  0.69466642  0.00539957  1
  I  I3  1  0.88622296  0.30533358  0.00539957  1
  Na  Na4  1  0.73463196  0.79024690  0.31902695  1
  Na  Na5  1  0.23463196  0.20975310  0.31902695  1
  Na  Na6  1  0.26536804  0.20975310  0.81902695  1
  Na  Na7  1  0.76536804  0.79024690  0.81902695  1
