# generated using pymatgen
data_LiBr
_symmetry_space_group_name_H-M   'P 1'
_cell_length_a   4.18740034
_cell_length_b   4.18740034
_cell_length_c   11.88498974
_cell_angle_alpha   90.00000250
_cell_angle_beta   90.00000250
_cell_angle_gamma   90.00000250
_symmetry_Int_Tables_number   1
_chemical_formula_structural   LiBr
_chemical_formula_sum   'Li4 Br4'
_cell_volume   208.39523248
_cell_formula_units_Z   4
loop_
 _symmetry_equiv_pos_site_id
 _symmetry_equiv_pos_as_xyz
  1  'x, y, z'
loop_
 _atom_site_type_symbol
 _atom_site_label
 _atom_site_symmetry_multiplicity
 _atom_site_fract_x
 _atom_site_fract_y
 _atom_site_fract_z
 _atom_site_occupancy
  Li  Li0  1  0.35399050  0.53804335  0.57782155  1
  Li  Li1  1  0.53804335  0.64600950  0.32782155  1
  Li  Li2  1  0.64600950  0.46195665  0.07782155  1
  Li  Li3  1  0.46195665  0.35399050  0.82782155  1
  Br  Br4  1  0.88994706  0.73063743  0.87539685  1
  Br  Br5  1  0.73063743  0.11005294  0.62539685  1
  Br  Br6  1  0.11005294  0.26936257  0.37539685  1
  Br  Br7  1  0.26936257  0.88994706  0.12539685  1
