# generated using pymatgen
data_NaI
_symmetry_space_group_name_H-M   'P 1'
_cell_length_a   11.19791031
_cell_length_b   11.19791031
_cell_length_c   12.29378223
_cell_angle_alpha   90.00000250
_cell_angle_beta   90.00000250
_cell_angle_gamma   90.00000250
_symmetry_Int_Tables_number   1
_chemical_formula_structural   NaI
_chemical_formula_sum   'Na16 I16'
_cell_volume   1541.55663648
_cell_formula_units_Z   16
loop_
 _symmetry_equiv_pos_site_id
 _symmetry_equiv_pos_as_xyz
  1  'x, y, z'
loop_
 _atom_site_type_symbol
 _atom_site_label
 _atom_site_symmetry_multiplicity
 _atom_site_fract_x
 _atom_site_fract_y
 _atom_site_fract_z
 _atom_site_occupancy
  I  I0  1  0.90976351  0.14048809  0.71773407  1
  I  I1  1  0.64048809  0.90976351  0.96773407  1
  I  I2  1  0.09023649  0.14048809  0.21773407  1
  I  I3  1  0.09023649  0.85951191  0.71773407  1
  I  I4  1  0.35951191  0.09023649  0.96773407  1
  I  I5  1  0.85951191  0.40976352  0.96773407  1
  I  I6  1  0.14048809  0.59023648  0.96773407  1
  I  I7  1  0.35951191  0.90976351  0.46773407  1
  I  I8  1  0.64048809  0.09023649  0.46773407  1
  I  I9  1  0.59023648  0.35951191  0.21773407  1
  I  I10  1  0.85951191  0.59023648  0.46773407  1
  I  I11  1  0.40976352  0.64048809  0.21773407  1
  I  I12  1  0.14048809  0.40976352  0.46773407  1
  I  I13  1  0.59023648  0.64048809  0.71773407  1
  I  I14  1  0.40976352  0.35951191  0.71773407  1
  I  I15  1  0.90976351  0.85951191  0.21773407  1
  Na  Na16  1  0.68426377  0.29927513  0.55190110  1
  Na  Na17  1  0.79927513  0.68426377  0.80190110  1
  Na  Na18  1  0.31573623  0.29927513  0.05190110  1
  Na  Na19  1  0.31573623  0.70072487  0.55190110  1
  Na  Na20  1  0.20072487  0.31573623  0.80190110  1
  Na  Na21  1  0.70072487  0.18426377  0.80190110  1
  Na  Na22  1  0.29927513  0.81573623  0.80190110  1
  Na  Na23  1  0.20072487  0.68426377  0.30190110  1
  Na  Na24  1  0.79927513  0.31573623  0.30190110  1
  Na  Na25  1  0.81573623  0.20072487  0.05190110  1
  Na  Na26  1  0.70072487  0.81573623  0.30190110  1
  Na  Na27  1  0.18426377  0.79927513  0.05190110  1
  Na  Na28  1  0.29927513  0.18426377  0.30190110  1
  Na  Na29  1  0.81573623  0.79927513  0.55190110  1
  Na  Na30  1  0.18426377  0.20072487  0.55190110  1
  Na  Na31  1  0.68426377  0.70072487  0.05190110  1
