# generated using pymatgen
data_LiI
_symmetry_space_group_name_H-M   'P 1'
_cell_length_a   5.03877354
_cell_length_b   10.30849266
_cell_length_c   7.06549311
_cell_angle_alpha   90.00000250
_cell_angle_beta   122.33076441
_cell_angle_gamma   90.00000250
_symmetry_Int_Tables_number   1
_chemical_formula_structural   LiI
_chemical_formula_sum   'Li4 I4'
_cell_volume   310.10319292
_cell_formula_units_Z   4
loop_
 _symmetry_equiv_pos_site_id
 _symmetry_equiv_pos_as_xyz
  1  'x, y, z'
loop_
 _atom_site_type_symbol
 _atom_site_label
 _atom_site_symmetry_multiplicity
 _atom_site_fract_x
 _atom_site_fract_y
 _atom_site_fract_z
 _atom_site_occupancy
  Li  Li0  1  0.35180348  0.59377193  0.44983077  1
  Li  Li1  1  0.85180348  0.09377193  0.44983077  1
  Li  Li2  1  0.35180348  0.40622807  0.94983077  1
  Li  Li3  1  0.85180348  0.90622807  0.94983077  1
  I  I4  1  0.17492384  0.34678423  0.46781838  1
  I  I5  1  0.67492384  0.84678423  0.46781838  1
  I  I6  1  0.17492384  0.65321577  0.96781838  1
  I  I7  1  0.67492384  0.15321577  0.96781838  1
