# generated using pymatgen
data_LiBr
_symmetry_space_group_name_H-M   'P 1'
_cell_length_a   7.28332090
_cell_length_b   9.48593712
_cell_length_c   7.53927612
_cell_angle_alpha   90.00000250
_cell_angle_beta   90.00000250
_cell_angle_gamma   90.00000250
_symmetry_Int_Tables_number   1
_chemical_formula_structural   LiBr
_chemical_formula_sum   'Li8 Br8'
_cell_volume   520.88198374
_cell_formula_units_Z   8
loop_
 _symmetry_equiv_pos_site_id
 _symmetry_equiv_pos_as_xyz
  1  'x, y, z'
loop_
 _atom_site_type_symbol
 _atom_site_label
 _atom_site_symmetry_multiplicity
 _atom_site_fract_x
 _atom_site_fract_y
 _atom_site_fract_z
 _atom_site_occupancy
  Li  Li0  1  0.22063231  0.98315078  0.99502820  1
  Li  Li1  1  0.72063231  0.01684922  0.49502820  1
  Li  Li2  1  0.27936769  0.48315078  0.99502820  1
  Li  Li3  1  0.77936769  0.01684922  0.99502820  1
  Li  Li4  1  0.72063231  0.51684922  0.99502820  1
  Li  Li5  1  0.27936769  0.98315078  0.49502820  1
  Li  Li6  1  0.77936769  0.51684922  0.49502820  1
  Li  Li7  1  0.22063231  0.48315078  0.49502820  1
  Br  Br8  1  0.99859998  0.74732292  0.36018232  1
  Br  Br9  1  0.49859998  0.25267708  0.86018232  1
  Br  Br10  1  0.50140002  0.24732292  0.36018232  1
  Br  Br11  1  0.00140002  0.25267708  0.36018232  1
  Br  Br12  1  0.49859998  0.75267708  0.36018232  1
  Br  Br13  1  0.50140002  0.74732292  0.86018232  1
  Br  Br14  1  0.00140002  0.75267708  0.86018232  1
  Br  Br15  1  0.99859998  0.24732292  0.86018232  1
