# generated using pymatgen
data_NaBr
_symmetry_space_group_name_H-M   'P 1'
_cell_length_a   8.88319588
_cell_length_b   4.14615917
_cell_length_c   6.65015411
_cell_angle_alpha   90.00000250
_cell_angle_beta   90.00000250
_cell_angle_gamma   90.00000250
_symmetry_Int_Tables_number   1
_chemical_formula_structural   NaBr
_chemical_formula_sum   'Na4 Br4'
_cell_volume   244.93278420
_cell_formula_units_Z   4
loop_
 _symmetry_equiv_pos_site_id
 _symmetry_equiv_pos_as_xyz
  1  'x, y, z'
loop_
 _atom_site_type_symbol
 _atom_site_label
 _atom_site_symmetry_multiplicity
 _atom_site_fract_x
 _atom_site_fract_y
 _atom_site_fract_z
 _atom_site_occupancy
  Br  Br0  1  0.65591957  0.72814757  0.36798930  1
  Br  Br1  1  0.34408043  0.22814757  0.13201070  1
  Br  Br2  1  0.84408043  0.27185243  0.86798930  1
  Br  Br3  1  0.15591957  0.77185243  0.63201070  1
  Na  Na4  1  0.58912207  0.80751920  0.97377060  1
  Na  Na5  1  0.41087793  0.30751920  0.52622940  1
  Na  Na6  1  0.91087793  0.19248080  0.47377060  1
  Na  Na7  1  0.08912207  0.69248080  0.02622940  1
