# generated using pymatgen
data_LiCl
_symmetry_space_group_name_H-M   'P 1'
_cell_length_a   10.08381557
_cell_length_b   10.08381557
_cell_length_c   5.45973635
_cell_angle_alpha   90.00000250
_cell_angle_beta   90.00000250
_cell_angle_gamma   120.00000334
_symmetry_Int_Tables_number   1
_chemical_formula_structural   LiCl
_chemical_formula_sum   'Li18 Cl18'
_cell_volume   480.78629159
_cell_formula_units_Z   18
loop_
 _symmetry_equiv_pos_site_id
 _symmetry_equiv_pos_as_xyz
  1  'x, y, z'
loop_
 _atom_site_type_symbol
 _atom_site_label
 _atom_site_symmetry_multiplicity
 _atom_site_fract_x
 _atom_site_fract_y
 _atom_site_fract_z
 _atom_site_occupancy
  Li  Li0  1  0.15623112  0.42394461  0.41579302  1
  Li  Li1  1  0.15623112  0.73228650  0.91579302  1
  Li  Li2  1  0.90938872  0.51043555  0.58245969  1
  Li  Li3  1  0.60104683  0.09061128  0.58245969  1
  Li  Li4  1  0.24272205  0.06561984  0.74912635  1
  Li  Li5  1  0.57605539  0.73228650  0.41579302  1
  Li  Li6  1  0.60104683  0.51043555  0.08245969  1
  Li  Li7  1  0.90938872  0.39895317  0.08245969  1
  Li  Li8  1  0.26771350  0.84376888  0.41579302  1
  Li  Li9  1  0.26771350  0.42394461  0.91579302  1
  Li  Li10  1  0.48956445  0.09061128  0.08245969  1
  Li  Li11  1  0.48956445  0.39895317  0.58245969  1
  Li  Li12  1  0.93438016  0.17710222  0.74912635  1
  Li  Li13  1  0.93438016  0.75727795  0.24912635  1
  Li  Li14  1  0.57605539  0.84376888  0.91579302  1
  Li  Li15  1  0.24272205  0.17710222  0.24912635  1
  Li  Li16  1  0.82289778  0.75727795  0.74912635  1
  Li  Li17  1  0.82289778  0.06561984  0.24912635  1
  Cl  Cl18  1  0.44417807  0.14821053  0.35529287  1
  Cl  Cl19  1  0.44417807  0.29596754  0.85529287  1
  Cl  Cl20  1  0.18512280  0.22248860  0.52195954  1
  Cl  Cl21  1  0.03736579  0.81487720  0.52195954  1
  Cl  Cl22  1  0.51845614  0.62930087  0.68862621  1
  Cl  Cl23  1  0.85178947  0.29596754  0.35529287  1
  Cl  Cl24  1  0.03736579  0.22248860  0.02195954  1
  Cl  Cl25  1  0.18512280  0.96263421  0.02195954  1
  Cl  Cl26  1  0.70403246  0.55582193  0.35529287  1
  Cl  Cl27  1  0.70403246  0.14821053  0.85529287  1
  Cl  Cl28  1  0.77751140  0.81487720  0.02195954  1
  Cl  Cl29  1  0.77751140  0.96263421  0.52195954  1
  Cl  Cl30  1  0.37069913  0.88915526  0.68862621  1
  Cl  Cl31  1  0.37069913  0.48154386  0.18862621  1
  Cl  Cl32  1  0.85178947  0.55582193  0.85529287  1
  Cl  Cl33  1  0.51845614  0.88915526  0.18862621  1
  Cl  Cl34  1  0.11084474  0.48154386  0.68862621  1
  Cl  Cl35  1  0.11084474  0.62930087  0.18862621  1
