# generated using pymatgen
data_LiI
_symmetry_space_group_name_H-M   'P 1'
_cell_length_a   8.21586990
_cell_length_b   4.59058428
_cell_length_c   7.63786983
_cell_angle_alpha   90.00000250
_cell_angle_beta   90.00000250
_cell_angle_gamma   90.00000250
_symmetry_Int_Tables_number   1
_chemical_formula_structural   LiI
_chemical_formula_sum   'Li4 I4'
_cell_volume   288.06717358
_cell_formula_units_Z   4
loop_
 _symmetry_equiv_pos_site_id
 _symmetry_equiv_pos_as_xyz
  1  'x, y, z'
loop_
 _atom_site_type_symbol
 _atom_site_label
 _atom_site_symmetry_multiplicity
 _atom_site_fract_x
 _atom_site_fract_y
 _atom_site_fract_z
 _atom_site_occupancy
  Li  Li0  1  0.35537033  0.00255206  0.28203386  1
  Li  Li1  1  0.85537033  0.99744794  0.28203386  1
  Li  Li2  1  0.64462967  0.99744794  0.78203386  1
  Li  Li3  1  0.14462967  0.00255206  0.78203386  1
  I  I4  1  0.94048154  0.54372841  0.94635034  1
  I  I5  1  0.44048154  0.45627159  0.94635034  1
  I  I6  1  0.05951846  0.45627159  0.44635034  1
  I  I7  1  0.55951846  0.54372841  0.44635034  1
