# generated using pymatgen
data_LiBr
_symmetry_space_group_name_H-M   'P 1'
_cell_length_a   11.70823002
_cell_length_b   4.62501812
_cell_length_c   4.44527960
_cell_angle_alpha   90.00000250
_cell_angle_beta   90.00000250
_cell_angle_gamma   90.00000250
_symmetry_Int_Tables_number   1
_chemical_formula_structural   LiBr
_chemical_formula_sum   'Li4 Br4'
_cell_volume   240.71533972
_cell_formula_units_Z   4
loop_
 _symmetry_equiv_pos_site_id
 _symmetry_equiv_pos_as_xyz
  1  'x, y, z'
loop_
 _atom_site_type_symbol
 _atom_site_label
 _atom_site_symmetry_multiplicity
 _atom_site_fract_x
 _atom_site_fract_y
 _atom_site_fract_z
 _atom_site_occupancy
  Li  Li0  1  0.68231773  0.14192685  0.62322995  1
  Li  Li1  1  0.31768227  0.64192685  0.87677005  1
  Li  Li2  1  0.81768227  0.85807315  0.12322995  1
  Li  Li3  1  0.18231773  0.35807315  0.37677005  1
  Br  Br4  1  0.42106265  0.30239922  0.47021455  1
  Br  Br5  1  0.57893735  0.80239922  0.02978545  1
  Br  Br6  1  0.07893735  0.69760078  0.97021455  1
  Br  Br7  1  0.92106265  0.19760078  0.52978545  1
