# generated using pymatgen
data_LiBr
_symmetry_space_group_name_H-M   'P 1'
_cell_length_a   10.32999706
_cell_length_b   10.32999706
_cell_length_c   7.22802258
_cell_angle_alpha   90.00000250
_cell_angle_beta   90.00000250
_cell_angle_gamma   120.00000334
_symmetry_Int_Tables_number   1
_chemical_formula_structural   LiBr
_chemical_formula_sum   'Li9 Br9'
_cell_volume   667.96008833
_cell_formula_units_Z   9
loop_
 _symmetry_equiv_pos_site_id
 _symmetry_equiv_pos_as_xyz
  1  'x, y, z'
loop_
 _atom_site_type_symbol
 _atom_site_label
 _atom_site_symmetry_multiplicity
 _atom_site_fract_x
 _atom_site_fract_y
 _atom_site_fract_z
 _atom_site_occupancy
  Br  Br0  1  0.51636287  0.62000237  0.66338573  1
  Br  Br1  1  0.71333096  0.56302716  0.33005240  1
  Br  Br2  1  0.84969620  0.28666904  0.33005240  1
  Br  Br3  1  0.04666430  0.22969383  0.99671906  1
  Br  Br4  1  0.18302953  0.95333570  0.99671906  1
  Br  Br5  1  0.77030617  0.81697047  0.99671906  1
  Br  Br6  1  0.37999763  0.89636050  0.66338573  1
  Br  Br7  1  0.43697284  0.15030380  0.33005240  1
  Br  Br8  1  0.10363950  0.48363713  0.66338573  1
  Li  Li9  1  0.83927854  0.80372974  0.60621713  1
  Li  Li10  1  0.52960360  0.70221547  0.27288379  1
  Li  Li11  1  0.17261187  0.47039640  0.27288379  1
  Li  Li12  1  0.86293693  0.36888213  0.93955046  1
  Li  Li13  1  0.50594521  0.13706307  0.93955046  1
  Li  Li14  1  0.63111787  0.49405479  0.93955046  1
  Li  Li15  1  0.19627026  0.03554880  0.60621713  1
  Li  Li16  1  0.29778453  0.82738813  0.27288379  1
  Li  Li17  1  0.96445120  0.16072146  0.60621713  1
