# generated using pymatgen
data_LiBr
_symmetry_space_group_name_H-M   'P 1'
_cell_length_a   9.48587799
_cell_length_b   9.48587799
_cell_length_c   5.95308161
_cell_angle_alpha   90.00000250
_cell_angle_beta   90.00000250
_cell_angle_gamma   90.00000250
_symmetry_Int_Tables_number   1
_chemical_formula_structural   LiBr
_chemical_formula_sum   'Li8 Br8'
_cell_volume   535.66948234
_cell_formula_units_Z   8
loop_
 _symmetry_equiv_pos_site_id
 _symmetry_equiv_pos_as_xyz
  1  'x, y, z'
loop_
 _atom_site_type_symbol
 _atom_site_label
 _atom_site_symmetry_multiplicity
 _atom_site_fract_x
 _atom_site_fract_y
 _atom_site_fract_z
 _atom_site_occupancy
  Br  Br0  1  0.81468572  0.88135147  0.30199081  1
  Br  Br1  1  0.38135147  0.68531428  0.19800919  1
  Br  Br2  1  0.18531428  0.11864853  0.30199081  1
  Br  Br3  1  0.11864853  0.81468572  0.69800919  1
  Br  Br4  1  0.88135147  0.18531428  0.69800919  1
  Br  Br5  1  0.68531428  0.61864853  0.80199081  1
  Br  Br6  1  0.61864853  0.31468572  0.19800919  1
  Br  Br7  1  0.31468572  0.38135147  0.80199081  1
  Li  Li8  1  0.58892599  0.79361594  0.51153114  1
  Li  Li9  1  0.29361594  0.91107401  0.98846886  1
  Li  Li10  1  0.41107401  0.20638406  0.51153114  1
  Li  Li11  1  0.20638406  0.58892599  0.48846886  1
  Li  Li12  1  0.79361594  0.41107401  0.48846886  1
  Li  Li13  1  0.91107401  0.70638406  0.01153114  1
  Li  Li14  1  0.70638406  0.08892599  0.98846886  1
  Li  Li15  1  0.08892599  0.29361594  0.01153114  1
