# generated using pymatgen
data_NaBr
_symmetry_space_group_name_H-M   'P 1'
_cell_length_a   4.90103579
_cell_length_b   4.90103579
_cell_length_c   11.31632042
_cell_angle_alpha   90.00000250
_cell_angle_beta   90.00000250
_cell_angle_gamma   90.00000250
_symmetry_Int_Tables_number   1
_chemical_formula_structural   NaBr
_chemical_formula_sum   'Na4 Br4'
_cell_volume   271.81973398
_cell_formula_units_Z   4
loop_
 _symmetry_equiv_pos_site_id
 _symmetry_equiv_pos_as_xyz
  1  'x, y, z'
loop_
 _atom_site_type_symbol
 _atom_site_label
 _atom_site_symmetry_multiplicity
 _atom_site_fract_x
 _atom_site_fract_y
 _atom_site_fract_z
 _atom_site_occupancy
  Na  Na0  1  0.77083570  0.81011736  0.55689758  1
  Na  Na1  1  0.81011736  0.22916430  0.30689758  1
  Na  Na2  1  0.22916430  0.18988264  0.05689758  1
  Na  Na3  1  0.18988264  0.77083570  0.80689758  1
  Br  Br4  1  0.21389960  0.18550795  0.50476027  1
  Br  Br5  1  0.18550795  0.78610040  0.25476027  1
  Br  Br6  1  0.78610040  0.81449205  0.00476027  1
  Br  Br7  1  0.81449205  0.21389960  0.75476027  1
