# generated using pymatgen
data_LiI
_symmetry_space_group_name_H-M   'P 1'
_cell_length_a   14.43316936
_cell_length_b   14.43316936
_cell_length_c   8.44984818
_cell_angle_alpha   90.00000250
_cell_angle_beta   90.00000250
_cell_angle_gamma   120.00000334
_symmetry_Int_Tables_number   1
_chemical_formula_structural   LiI
_chemical_formula_sum   'Li18 I18'
_cell_volume   1524.41403467
_cell_formula_units_Z   18
loop_
 _symmetry_equiv_pos_site_id
 _symmetry_equiv_pos_as_xyz
  1  'x, y, z'
loop_
 _atom_site_type_symbol
 _atom_site_label
 _atom_site_symmetry_multiplicity
 _atom_site_fract_x
 _atom_site_fract_y
 _atom_site_fract_z
 _atom_site_occupancy
  I  I0  1  0.90818447  0.45465531  0.47000376  1
  I  I1  1  0.90818447  0.45352916  0.97000376  1
  I  I2  1  0.87867802  0.75848220  0.63667043  1
  I  I3  1  0.87980417  0.12132198  0.63667043  1
  I  I4  1  0.21201136  0.78686250  0.80333709  1
  I  I5  1  0.54534469  0.45352916  0.47000376  1
  I  I6  1  0.87980417  0.75848220  0.13667043  1
  I  I7  1  0.87867802  0.12019583  0.13667043  1
  I  I8  1  0.54647084  0.09181553  0.47000376  1
  I  I9  1  0.54647084  0.45465531  0.97000376  1
  I  I10  1  0.24151780  0.12132198  0.13667043  1
  I  I11  1  0.24151780  0.12019583  0.63667043  1
  I  I12  1  0.21313751  0.42514886  0.80333709  1
  I  I13  1  0.21313751  0.78798864  0.30333709  1
  I  I14  1  0.54534469  0.09181553  0.97000376  1
  I  I15  1  0.21201136  0.42514886  0.30333709  1
  I  I16  1  0.57485114  0.78798864  0.80333709  1
  I  I17  1  0.57485114  0.78686250  0.30333709  1
  Li  Li18  1  0.96130786  0.68568106  0.92665412  1
  Li  Li19  1  0.96130786  0.27562680  0.42665412  1
  Li  Li20  1  0.64765227  0.70535880  0.09332079  1
  Li  Li21  1  0.05770653  0.35234773  0.09332079  1
  Li  Li22  1  0.98098560  0.60896013  0.25998745  1
  Li  Li23  1  0.31431894  0.27562680  0.92665412  1
  Li  Li24  1  0.05770653  0.70535880  0.59332079  1
  Li  Li25  1  0.64765227  0.94229347  0.59332079  1
  Li  Li26  1  0.72437320  0.03869214  0.92665412  1
  Li  Li27  1  0.72437320  0.68568106  0.42665412  1
  Li  Li28  1  0.29464120  0.35234773  0.59332079  1
  Li  Li29  1  0.29464120  0.94229347  0.09332079  1
  Li  Li30  1  0.39103987  0.37202547  0.25998745  1
  Li  Li31  1  0.39103987  0.01901440  0.75998745  1
  Li  Li32  1  0.31431894  0.03869214  0.42665412  1
  Li  Li33  1  0.98098560  0.37202547  0.75998745  1
  Li  Li34  1  0.62797453  0.01901440  0.25998745  1
  Li  Li35  1  0.62797453  0.60896013  0.75998745  1
