# generated using pymatgen
data_KC
_symmetry_space_group_name_H-M   'P 1'
_cell_length_a   7.29043150
_cell_length_b   4.00000143
_cell_length_c   8.92205238
_cell_angle_alpha   90.00000250
_cell_angle_beta   90.00000250
_cell_angle_gamma   90.00000250
_symmetry_Int_Tables_number   1
_chemical_formula_structural   KC
_chemical_formula_sum   'K8 C8'
_cell_volume   260.18253999
_cell_formula_units_Z   8
loop_
 _symmetry_equiv_pos_site_id
 _symmetry_equiv_pos_as_xyz
  1  'x, y, z'
loop_
 _atom_site_type_symbol
 _atom_site_label
 _atom_site_symmetry_multiplicity
 _atom_site_fract_x
 _atom_site_fract_y
 _atom_site_fract_z
 _atom_site_occupancy
  C  C0  1  0.74521536  0.32487455  0.96526685  1
  C  C1  1  0.74521536  0.67512545  0.96526685  1
  C  C2  1  0.74521536  0.67512545  0.03473315  1
  C  C3  1  0.25478464  0.67512545  0.96526685  1
  C  C4  1  0.25478464  0.32487455  0.03473315  1
  C  C5  1  0.25478464  0.32487455  0.96526685  1
  C  C6  1  0.74521536  0.32487455  0.03473315  1
  C  C7  1  0.25478464  0.67512545  0.03473315  1
  K  K8  1  0.24386382  0.99915153  0.00000012  1
  K  K9  1  0.24386382  0.00084847  0.00000012  1
  K  K10  1  0.24386382  0.00084847  0.99999988  1
  K  K11  1  0.75613618  0.00084847  0.00000012  1
  K  K12  1  0.75613618  0.99915153  0.99999988  1
  K  K13  1  0.75613618  0.99915153  0.00000012  1
  K  K14  1  0.24386382  0.99915153  0.99999988  1
  K  K15  1  0.75613618  0.00084847  0.99999988  1
