# generated using pymatgen
data_LiBr
_symmetry_space_group_name_H-M   'P 1'
_cell_length_a   4.00364447
_cell_length_b   4.00364447
_cell_length_c   10.26740551
_cell_angle_alpha   90.00000250
_cell_angle_beta   90.00000250
_cell_angle_gamma   90.00000250
_symmetry_Int_Tables_number   1
_chemical_formula_structural   LiBr
_chemical_formula_sum   'Li4 Br4'
_cell_volume   164.57797825
_cell_formula_units_Z   4
loop_
 _symmetry_equiv_pos_site_id
 _symmetry_equiv_pos_as_xyz
  1  'x, y, z'
loop_
 _atom_site_type_symbol
 _atom_site_label
 _atom_site_symmetry_multiplicity
 _atom_site_fract_x
 _atom_site_fract_y
 _atom_site_fract_z
 _atom_site_occupancy
  Li  Li0  1  0.35251737  0.18618357  0.57805967  1
  Li  Li1  1  0.18618357  0.64748263  0.82805967  1
  Li  Li2  1  0.64748263  0.81381643  0.07805967  1
  Li  Li3  1  0.81381643  0.35251737  0.32805967  1
  Br  Br4  1  0.42155239  0.76184104  0.37395147  1
  Br  Br5  1  0.76184104  0.57844761  0.62395147  1
  Br  Br6  1  0.57844761  0.23815896  0.87395147  1
  Br  Br7  1  0.23815896  0.42155239  0.12395147  1
