# generated using pymatgen
data_LiBr
_symmetry_space_group_name_H-M   'P 1'
_cell_length_a   13.82236576
_cell_length_b   13.82236576
_cell_length_c   5.87772083
_cell_angle_alpha   90.00000250
_cell_angle_beta   90.00000250
_cell_angle_gamma   120.00000334
_symmetry_Int_Tables_number   1
_chemical_formula_structural   LiBr
_chemical_formula_sum   'Li18 Br18'
_cell_volume   972.53297124
_cell_formula_units_Z   18
loop_
 _symmetry_equiv_pos_site_id
 _symmetry_equiv_pos_as_xyz
  1  'x, y, z'
loop_
 _atom_site_type_symbol
 _atom_site_label
 _atom_site_symmetry_multiplicity
 _atom_site_fract_x
 _atom_site_fract_y
 _atom_site_fract_z
 _atom_site_occupancy
  Br  Br0  1  0.50786615  0.93688275  0.08438512  1
  Br  Br1  1  0.50786615  0.57098340  0.58438512  1
  Br  Br2  1  0.39645058  0.15880051  0.25105178  1
  Br  Br3  1  0.76234993  0.60354942  0.25105178  1
  Br  Br4  1  0.72978391  0.90431673  0.41771845  1
  Br  Br5  1  0.06311725  0.57098340  0.08438512  1
  Br  Br6  1  0.76234993  0.15880051  0.75105178  1
  Br  Br7  1  0.39645058  0.23765007  0.75105178  1
  Br  Br8  1  0.42901660  0.49213385  0.08438512  1
  Br  Br9  1  0.42901660  0.93688275  0.58438512  1
  Br  Br10  1  0.84119949  0.60354942  0.75105178  1
  Br  Br11  1  0.84119949  0.23765007  0.25105178  1
  Br  Br12  1  0.09568327  0.82546718  0.41771845  1
  Br  Br13  1  0.09568327  0.27021609  0.91771845  1
  Br  Br14  1  0.06311725  0.49213385  0.58438512  1
  Br  Br15  1  0.72978391  0.82546718  0.91771845  1
  Br  Br16  1  0.17453282  0.27021609  0.41771845  1
  Br  Br17  1  0.17453282  0.90431673  0.91771845  1
  Li  Li18  1  0.56166337  0.43920197  0.15380534  1
  Li  Li19  1  0.56166337  0.12246140  0.65380534  1
  Li  Li20  1  0.89413136  0.10500330  0.32047200  1
  Li  Li21  1  0.21087193  0.10586864  0.32047200  1
  Li  Li22  1  0.22746470  0.45579473  0.48713867  1
  Li  Li23  1  0.56079803  0.12246140  0.15380534  1
  Li  Li24  1  0.21087193  0.10500330  0.82047200  1
  Li  Li25  1  0.89413136  0.78912807  0.82047200  1
  Li  Li26  1  0.87753860  0.43833663  0.15380534  1
  Li  Li27  1  0.87753860  0.43920197  0.65380534  1
  Li  Li28  1  0.89499670  0.10586864  0.82047200  1
  Li  Li29  1  0.89499670  0.78912807  0.32047200  1
  Li  Li30  1  0.54420527  0.77166996  0.48713867  1
  Li  Li31  1  0.54420527  0.77253530  0.98713867  1
  Li  Li32  1  0.56079803  0.43833663  0.65380534  1
  Li  Li33  1  0.22746470  0.77166996  0.98713867  1
  Li  Li34  1  0.22833004  0.77253530  0.48713867  1
  Li  Li35  1  0.22833004  0.45579473  0.98713867  1
