# generated using pymatgen
data_LiBr
_symmetry_space_group_name_H-M   'P 1'
_cell_length_a   10.27385712
_cell_length_b   5.99359798
_cell_length_c   6.48400831
_cell_angle_alpha   90.00000250
_cell_angle_beta   90.00000250
_cell_angle_gamma   90.00000250
_symmetry_Int_Tables_number   1
_chemical_formula_structural   LiBr
_chemical_formula_sum   'Li8 Br8'
_cell_volume   399.26817442
_cell_formula_units_Z   8
loop_
 _symmetry_equiv_pos_site_id
 _symmetry_equiv_pos_as_xyz
  1  'x, y, z'
loop_
 _atom_site_type_symbol
 _atom_site_label
 _atom_site_symmetry_multiplicity
 _atom_site_fract_x
 _atom_site_fract_y
 _atom_site_fract_z
 _atom_site_occupancy
  Br  Br0  1  0.77643915  0.11983293  0.01950303  1
  Br  Br1  1  0.77643915  0.38016707  0.51950303  1
  Br  Br2  1  0.27643915  0.38016707  0.98049697  1
  Br  Br3  1  0.72356085  0.88016707  0.51950303  1
  Br  Br4  1  0.22356085  0.61983293  0.48049697  1
  Br  Br5  1  0.72356085  0.61983293  0.01950303  1
  Br  Br6  1  0.27643915  0.11983293  0.48049697  1
  Br  Br7  1  0.22356085  0.88016707  0.98049697  1
  Li  Li8  1  0.95968685  0.19790918  0.85040838  1
  Li  Li9  1  0.95968685  0.30209082  0.35040838  1
  Li  Li10  1  0.45968685  0.30209082  0.14959162  1
  Li  Li11  1  0.54031315  0.80209082  0.35040838  1
  Li  Li12  1  0.04031315  0.69790918  0.64959162  1
  Li  Li13  1  0.54031315  0.69790918  0.85040838  1
  Li  Li14  1  0.45968685  0.19790918  0.64959162  1
  Li  Li15  1  0.04031315  0.80209082  0.14959162  1
