# generated using pymatgen
data_NaBr
_symmetry_space_group_name_H-M   'P 1'
_cell_length_a   7.77297878
_cell_length_b   8.16578007
_cell_length_c   7.39377880
_cell_angle_alpha   90.00000250
_cell_angle_beta   90.00000250
_cell_angle_gamma   90.00000250
_symmetry_Int_Tables_number   1
_chemical_formula_structural   NaBr
_chemical_formula_sum   'Na8 Br8'
_cell_volume   469.30114589
_cell_formula_units_Z   8
loop_
 _symmetry_equiv_pos_site_id
 _symmetry_equiv_pos_as_xyz
  1  'x, y, z'
loop_
 _atom_site_type_symbol
 _atom_site_label
 _atom_site_symmetry_multiplicity
 _atom_site_fract_x
 _atom_site_fract_y
 _atom_site_fract_z
 _atom_site_occupancy
  Br  Br0  1  0.07849360  0.56072123  0.21356457  1
  Br  Br1  1  0.07849360  0.93927877  0.71356457  1
  Br  Br2  1  0.57849360  0.93927877  0.78643543  1
  Br  Br3  1  0.42150640  0.43927877  0.71356457  1
  Br  Br4  1  0.92150640  0.06072123  0.28643543  1
  Br  Br5  1  0.42150640  0.06072123  0.21356457  1
  Br  Br6  1  0.57849360  0.56072123  0.28643543  1
  Br  Br7  1  0.92150640  0.43927877  0.78643543  1
  Na  Na8  1  0.27744955  0.26789606  0.38859890  1
  Na  Na9  1  0.27744955  0.23210394  0.88859890  1
  Na  Na10  1  0.77744955  0.23210394  0.61140110  1
  Na  Na11  1  0.22255045  0.73210394  0.88859890  1
  Na  Na12  1  0.72255045  0.76789606  0.11140110  1
  Na  Na13  1  0.22255045  0.76789606  0.38859890  1
  Na  Na14  1  0.77744955  0.26789606  0.11140110  1
  Na  Na15  1  0.72255045  0.73210394  0.61140110  1
