# generated using pymatgen
data_LiBr
_symmetry_space_group_name_H-M   'P 1'
_cell_length_a   8.70126915
_cell_length_b   6.15413618
_cell_length_c   4.00108910
_cell_angle_alpha   90.00000250
_cell_angle_beta   90.00000250
_cell_angle_gamma   90.00000250
_symmetry_Int_Tables_number   1
_chemical_formula_structural   LiBr
_chemical_formula_sum   'Li4 Br4'
_cell_volume   214.25350096
_cell_formula_units_Z   4
loop_
 _symmetry_equiv_pos_site_id
 _symmetry_equiv_pos_as_xyz
  1  'x, y, z'
loop_
 _atom_site_type_symbol
 _atom_site_label
 _atom_site_symmetry_multiplicity
 _atom_site_fract_x
 _atom_site_fract_y
 _atom_site_fract_z
 _atom_site_occupancy
  Br  Br0  1  0.78447407  0.41002738  0.68778677  1
  Br  Br1  1  0.28447407  0.08997262  0.68778677  1
  Br  Br2  1  0.21552593  0.58997262  0.18778677  1
  Br  Br3  1  0.71552593  0.91002738  0.18778677  1
  Li  Li4  1  0.58224368  0.74597426  0.78410879  1
  Li  Li5  1  0.08224368  0.75402574  0.78410879  1
  Li  Li6  1  0.41775632  0.25402574  0.28410879  1
  Li  Li7  1  0.91775632  0.24597426  0.28410879  1
