# generated using pymatgen
data_LiBr
_symmetry_space_group_name_H-M   'P 1'
_cell_length_a   5.59037733
_cell_length_b   5.25549841
_cell_length_c   9.22132301
_cell_angle_alpha   90.00000250
_cell_angle_beta   90.00000250
_cell_angle_gamma   90.00000250
_symmetry_Int_Tables_number   1
_chemical_formula_structural   LiBr
_chemical_formula_sum   'Li4 Br4'
_cell_volume   270.92449116
_cell_formula_units_Z   4
loop_
 _symmetry_equiv_pos_site_id
 _symmetry_equiv_pos_as_xyz
  1  'x, y, z'
loop_
 _atom_site_type_symbol
 _atom_site_label
 _atom_site_symmetry_multiplicity
 _atom_site_fract_x
 _atom_site_fract_y
 _atom_site_fract_z
 _atom_site_occupancy
  Li  Li0  1  0.30536106  0.58542091  0.12902153  1
  Li  Li1  1  0.80536106  0.41457909  0.12902153  1
  Li  Li2  1  0.69463894  0.41457909  0.62902153  1
  Li  Li3  1  0.19463894  0.58542091  0.62902153  1
  Br  Br4  1  0.91267496  0.77113944  0.38427979  1
  Br  Br5  1  0.41267496  0.22886056  0.38427979  1
  Br  Br6  1  0.08732504  0.22886056  0.88427979  1
  Br  Br7  1  0.58732504  0.77113944  0.88427979  1
