# generated using pymatgen
data_KC
_symmetry_space_group_name_H-M   'P 1'
_cell_length_a   4.07121515
_cell_length_b   14.68721485
_cell_length_c   4.00000000
_cell_angle_alpha   90.00000250
_cell_angle_beta   90.00000250
_cell_angle_gamma   90.00000250
_symmetry_Int_Tables_number   1
_chemical_formula_structural   KC
_chemical_formula_sum   'K8 C8'
_cell_volume   239.17924662
_cell_formula_units_Z   8
loop_
 _symmetry_equiv_pos_site_id
 _symmetry_equiv_pos_as_xyz
  1  'x, y, z'
loop_
 _atom_site_type_symbol
 _atom_site_label
 _atom_site_symmetry_multiplicity
 _atom_site_fract_x
 _atom_site_fract_y
 _atom_site_fract_z
 _atom_site_occupancy
  C  C0  1  0.03866583  0.58189005  0.10399455  1
  C  C1  1  0.03866583  0.41810995  0.10399455  1
  C  C2  1  0.03866583  0.41810995  0.89600545  1
  C  C3  1  0.96133417  0.41810995  0.10399455  1
  C  C4  1  0.96133417  0.58189005  0.89600545  1
  C  C5  1  0.96133417  0.58189005  0.10399455  1
  C  C6  1  0.03866583  0.58189005  0.89600545  1
  C  C7  1  0.96133417  0.41810995  0.89600545  1
  K  K8  1  0.72335052  0.99999988  0.99999889  1
  K  K9  1  0.72335052  0.00000012  0.99999889  1
  K  K10  1  0.72335052  0.00000012  0.00000111  1
  K  K11  1  0.27664948  0.00000012  0.99999889  1
  K  K12  1  0.27664948  0.99999988  0.00000111  1
  K  K13  1  0.27664948  0.99999988  0.99999889  1
  K  K14  1  0.72335052  0.99999988  0.00000111  1
  K  K15  1  0.27664948  0.00000012  0.00000111  1
