# generated using pymatgen
data_LiBr
_symmetry_space_group_name_H-M   'P 1'
_cell_length_a   6.80802441
_cell_length_b   5.51876116
_cell_length_c   6.82483101
_cell_angle_alpha   90.00000250
_cell_angle_beta   90.00000250
_cell_angle_gamma   90.00000250
_symmetry_Int_Tables_number   1
_chemical_formula_structural   LiBr
_chemical_formula_sum   'Li4 Br4'
_cell_volume   256.42159967
_cell_formula_units_Z   4
loop_
 _symmetry_equiv_pos_site_id
 _symmetry_equiv_pos_as_xyz
  1  'x, y, z'
loop_
 _atom_site_type_symbol
 _atom_site_label
 _atom_site_symmetry_multiplicity
 _atom_site_fract_x
 _atom_site_fract_y
 _atom_site_fract_z
 _atom_site_occupancy
  Li  Li0  1  0.08103710  0.04410622  0.72881824  1
  Li  Li1  1  0.91896290  0.54410622  0.77118176  1
  Li  Li2  1  0.41896290  0.95589378  0.22881824  1
  Li  Li3  1  0.58103710  0.45589378  0.27118176  1
  Br  Br4  1  0.84349802  0.17746025  0.46654522  1
  Br  Br5  1  0.15650198  0.67746025  0.03345478  1
  Br  Br6  1  0.65650198  0.82253975  0.96654522  1
  Br  Br7  1  0.34349802  0.32253975  0.53345478  1
