# generated using pymatgen
data_LiBr
_symmetry_space_group_name_H-M   'P 1'
_cell_length_a   5.98576260
_cell_length_b   5.98576260
_cell_length_c   12.13343048
_cell_angle_alpha   90.00000250
_cell_angle_beta   90.00000250
_cell_angle_gamma   120.00000334
_symmetry_Int_Tables_number   1
_chemical_formula_structural   LiBr
_chemical_formula_sum   'Li6 Br6'
_cell_volume   376.48978686
_cell_formula_units_Z   6
loop_
 _symmetry_equiv_pos_site_id
 _symmetry_equiv_pos_as_xyz
  1  'x, y, z'
loop_
 _atom_site_type_symbol
 _atom_site_label
 _atom_site_symmetry_multiplicity
 _atom_site_fract_x
 _atom_site_fract_y
 _atom_site_fract_z
 _atom_site_occupancy
  Br  Br0  1  0.55935818  0.13995641  0.64950310  1
  Br  Br1  1  0.41940176  0.55935818  0.48283644  1
  Br  Br2  1  0.58059824  0.44064182  0.98283644  1
  Br  Br3  1  0.13995641  0.58059824  0.81616977  1
  Br  Br4  1  0.86004359  0.41940176  0.31616977  1
  Br  Br5  1  0.44064182  0.86004359  0.14950310  1
  Li  Li6  1  0.58989635  0.64148381  0.83671619  1
  Li  Li7  1  0.94841254  0.58989635  0.67004953  1
  Li  Li8  1  0.05158746  0.41010365  0.17004953  1
  Li  Li9  1  0.64148381  0.05158746  0.00338286  1
  Li  Li10  1  0.35851619  0.94841254  0.50338286  1
  Li  Li11  1  0.41010365  0.35851619  0.33671619  1
