# generated using pymatgen
data_LiI
_symmetry_space_group_name_H-M   'P 1'
_cell_length_a   8.34851837
_cell_length_b   8.34851837
_cell_length_c   7.48035669
_cell_angle_alpha   90.00000250
_cell_angle_beta   90.00000250
_cell_angle_gamma   120.00000334
_symmetry_Int_Tables_number   1
_chemical_formula_structural   LiI
_chemical_formula_sum   'Li6 I6'
_cell_volume   451.51453834
_cell_formula_units_Z   6
loop_
 _symmetry_equiv_pos_site_id
 _symmetry_equiv_pos_as_xyz
  1  'x, y, z'
loop_
 _atom_site_type_symbol
 _atom_site_label
 _atom_site_symmetry_multiplicity
 _atom_site_fract_x
 _atom_site_fract_y
 _atom_site_fract_z
 _atom_site_occupancy
  I  I0  1  0.72633380  0.98400766  0.00945182  1
  I  I1  1  0.74232614  0.72633380  0.67611848  1
  I  I2  1  0.25767386  0.27366620  0.67611848  1
  I  I3  1  0.98400766  0.25767386  0.34278515  1
  I  I4  1  0.01599234  0.74232614  0.34278515  1
  I  I5  1  0.27366620  0.01599234  0.00945182  1
  Li  Li6  1  0.78238750  0.31749994  0.01818414  1
  Li  Li7  1  0.46488756  0.78238750  0.68485080  1
  Li  Li8  1  0.53511244  0.21761251  0.68485080  1
  Li  Li9  1  0.31749994  0.53511244  0.35151747  1
  Li  Li10  1  0.68250006  0.46488756  0.35151747  1
  Li  Li11  1  0.21761251  0.68250006  0.01818414  1
