# generated using pymatgen
data_LiBr
_symmetry_space_group_name_H-M   'P 1'
_cell_length_a   4.57066679
_cell_length_b   4.57066679
_cell_length_c   13.60881805
_cell_angle_alpha   90.00000250
_cell_angle_beta   90.00000250
_cell_angle_gamma   90.00000250
_symmetry_Int_Tables_number   1
_chemical_formula_structural   LiBr
_chemical_formula_sum   'Li4 Br4'
_cell_volume   284.30174864
_cell_formula_units_Z   4
loop_
 _symmetry_equiv_pos_site_id
 _symmetry_equiv_pos_as_xyz
  1  'x, y, z'
loop_
 _atom_site_type_symbol
 _atom_site_label
 _atom_site_symmetry_multiplicity
 _atom_site_fract_x
 _atom_site_fract_y
 _atom_site_fract_z
 _atom_site_occupancy
  Br  Br0  1  0.80931306  0.83827640  0.95994797  1
  Br  Br1  1  0.83827640  0.19068694  0.70994797  1
  Br  Br2  1  0.19068694  0.16172360  0.45994797  1
  Br  Br3  1  0.16172360  0.80931306  0.20994797  1
  Li  Li4  1  0.70400673  0.19426483  0.17258501  1
  Li  Li5  1  0.19426483  0.29599327  0.92258501  1
  Li  Li6  1  0.29599327  0.80573517  0.67258501  1
  Li  Li7  1  0.80573517  0.70400673  0.42258501  1
