# generated using pymatgen
data_LiBr
_symmetry_space_group_name_H-M   'P 1'
_cell_length_a   4.56799364
_cell_length_b   5.78525686
_cell_length_c   8.58757401
_cell_angle_alpha   90.00000250
_cell_angle_beta   121.65371508
_cell_angle_gamma   90.00000250
_symmetry_Int_Tables_number   1
_chemical_formula_structural   LiBr
_chemical_formula_sum   'Li4 Br4'
_cell_volume   193.18271490
_cell_formula_units_Z   4
loop_
 _symmetry_equiv_pos_site_id
 _symmetry_equiv_pos_as_xyz
  1  'x, y, z'
loop_
 _atom_site_type_symbol
 _atom_site_label
 _atom_site_symmetry_multiplicity
 _atom_site_fract_x
 _atom_site_fract_y
 _atom_site_fract_z
 _atom_site_occupancy
  Li  Li0  1  0.22397554  0.73391837  0.07830912  1
  Li  Li1  1  0.72397554  0.23391837  0.07830912  1
  Li  Li2  1  0.22397554  0.26608163  0.57830912  1
  Li  Li3  1  0.72397554  0.76608163  0.57830912  1
  Br  Br4  1  0.26521862  0.45850769  0.25265408  1
  Br  Br5  1  0.76521862  0.95850769  0.25265408  1
  Br  Br6  1  0.26521862  0.54149231  0.75265408  1
  Br  Br7  1  0.76521862  0.04149231  0.75265408  1
