# generated using pymatgen
data_LiI
_symmetry_space_group_name_H-M   'P 1'
_cell_length_a   13.34771061
_cell_length_b   6.03984261
_cell_length_c   4.34313536
_cell_angle_alpha   90.00000250
_cell_angle_beta   90.00000250
_cell_angle_gamma   90.00000250
_symmetry_Int_Tables_number   1
_chemical_formula_structural   LiI
_chemical_formula_sum   'Li4 I4'
_cell_volume   350.13519555
_cell_formula_units_Z   4
loop_
 _symmetry_equiv_pos_site_id
 _symmetry_equiv_pos_as_xyz
  1  'x, y, z'
loop_
 _atom_site_type_symbol
 _atom_site_label
 _atom_site_symmetry_multiplicity
 _atom_site_fract_x
 _atom_site_fract_y
 _atom_site_fract_z
 _atom_site_occupancy
  I  I0  1  0.28138109  0.85026681  0.30317783  1
  I  I1  1  0.78138109  0.64973319  0.30317783  1
  I  I2  1  0.71861891  0.14973319  0.80317783  1
  I  I3  1  0.21861891  0.35026681  0.80317783  1
  Li  Li4  1  0.51248527  0.20238161  0.96483862  1
  Li  Li5  1  0.01248527  0.29761839  0.96483862  1
  Li  Li6  1  0.48751473  0.79761839  0.46483862  1
  Li  Li7  1  0.98751473  0.70238161  0.46483862  1
