# generated using pymatgen
data_LiBr
_symmetry_space_group_name_H-M   'P 1'
_cell_length_a   11.60190201
_cell_length_b   11.60190201
_cell_length_c   8.84028816
_cell_angle_alpha   90.00000250
_cell_angle_beta   90.00000250
_cell_angle_gamma   120.00000334
_symmetry_Int_Tables_number   1
_chemical_formula_structural   LiBr
_chemical_formula_sum   'Li18 Br18'
_cell_volume   1030.51762708
_cell_formula_units_Z   18
loop_
 _symmetry_equiv_pos_site_id
 _symmetry_equiv_pos_as_xyz
  1  'x, y, z'
loop_
 _atom_site_type_symbol
 _atom_site_label
 _atom_site_symmetry_multiplicity
 _atom_site_fract_x
 _atom_site_fract_y
 _atom_site_fract_z
 _atom_site_occupancy
  Br  Br0  1  0.42530171  0.36249610  0.22905972  1
  Br  Br1  1  0.42530171  0.06280561  0.72905972  1
  Br  Br2  1  0.97083724  0.24136496  0.39572638  1
  Br  Br3  1  0.27052772  0.02916276  0.39572638  1
  Br  Br4  1  0.30417057  0.39613895  0.56239305  1
  Br  Br5  1  0.63750390  0.06280561  0.22905972  1
  Br  Br6  1  0.27052772  0.24136496  0.89572638  1
  Br  Br7  1  0.97083724  0.72947228  0.89572638  1
  Br  Br8  1  0.93719439  0.57469829  0.22905972  1
  Br  Br9  1  0.93719439  0.36249610  0.72905972  1
  Br  Br10  1  0.75863504  0.02916276  0.89572638  1
  Br  Br11  1  0.75863504  0.72947228  0.39572638  1
  Br  Br12  1  0.60386105  0.90803162  0.56239305  1
  Br  Br13  1  0.60386105  0.69582943  0.06239305  1
  Br  Br14  1  0.63750390  0.57469829  0.72905972  1
  Br  Br15  1  0.30417057  0.90803162  0.06239305  1
  Br  Br16  1  0.09196838  0.69582943  0.56239305  1
  Br  Br17  1  0.09196838  0.39613895  0.06239305  1
  Li  Li18  1  0.84719220  0.40303763  0.46300050  1
  Li  Li19  1  0.84719220  0.44415457  0.96300050  1
  Li  Li20  1  0.93029571  0.81947447  0.62966716  1
  Li  Li21  1  0.88917876  0.06970429  0.62966716  1
  Li  Li22  1  0.26362904  0.77748791  0.79633383  1
  Li  Li23  1  0.59696237  0.44415457  0.46300050  1
  Li  Li24  1  0.88917876  0.81947447  0.12966716  1
  Li  Li25  1  0.93029571  0.11082124  0.12966716  1
  Li  Li26  1  0.55584543  0.15280780  0.46300050  1
  Li  Li27  1  0.55584543  0.40303763  0.96300050  1
  Li  Li28  1  0.18052553  0.06970429  0.12966716  1
  Li  Li29  1  0.18052553  0.11082124  0.62966716  1
  Li  Li30  1  0.22251209  0.48614113  0.79633383  1
  Li  Li31  1  0.22251209  0.73637096  0.29633383  1
  Li  Li32  1  0.59696237  0.15280780  0.96300050  1
  Li  Li33  1  0.26362904  0.48614113  0.29633383  1
  Li  Li34  1  0.51385887  0.73637096  0.79633383  1
  Li  Li35  1  0.51385887  0.77748791  0.29633383  1
