# generated using pymatgen
data_NaBr
_symmetry_space_group_name_H-M   'P 1'
_cell_length_a   7.41263771
_cell_length_b   13.23267651
_cell_length_c   4.34160948
_cell_angle_alpha   90.00000250
_cell_angle_beta   90.00000250
_cell_angle_gamma   90.00000250
_symmetry_Int_Tables_number   1
_chemical_formula_structural   NaBr
_chemical_formula_sum   'Na8 Br8'
_cell_volume   425.86429221
_cell_formula_units_Z   8
loop_
 _symmetry_equiv_pos_site_id
 _symmetry_equiv_pos_as_xyz
  1  'x, y, z'
loop_
 _atom_site_type_symbol
 _atom_site_label
 _atom_site_symmetry_multiplicity
 _atom_site_fract_x
 _atom_site_fract_y
 _atom_site_fract_z
 _atom_site_occupancy
  Br  Br0  1  0.81057659  0.61289109  0.29455097  1
  Br  Br1  1  0.81057659  0.88710891  0.79455097  1
  Br  Br2  1  0.31057659  0.88710891  0.70544903  1
  Br  Br3  1  0.68942341  0.38710891  0.79455097  1
  Br  Br4  1  0.18942341  0.11289109  0.20544903  1
  Br  Br5  1  0.68942341  0.11289109  0.29455097  1
  Br  Br6  1  0.31057659  0.61289109  0.20544903  1
  Br  Br7  1  0.18942341  0.38710891  0.70544903  1
  Na  Na8  1  0.57401848  0.91822088  0.22319740  1
  Na  Na9  1  0.57401848  0.58177912  0.72319740  1
  Na  Na10  1  0.07401848  0.58177912  0.77680260  1
  Na  Na11  1  0.92598152  0.08177912  0.72319740  1
  Na  Na12  1  0.42598152  0.41822088  0.27680260  1
  Na  Na13  1  0.92598152  0.41822088  0.22319740  1
  Na  Na14  1  0.07401848  0.91822088  0.27680260  1
  Na  Na15  1  0.42598152  0.08177912  0.77680260  1
