# generated using pymatgen
data_LiI
_symmetry_space_group_name_H-M   'P 1'
_cell_length_a   8.19626045
_cell_length_b   7.02103138
_cell_length_c   4.71571636
_cell_angle_alpha   90.00000250
_cell_angle_beta   90.55868466
_cell_angle_gamma   90.00000250
_symmetry_Int_Tables_number   1
_chemical_formula_structural   LiI
_chemical_formula_sum   'Li4 I4'
_cell_volume   271.35866467
_cell_formula_units_Z   4
loop_
 _symmetry_equiv_pos_site_id
 _symmetry_equiv_pos_as_xyz
  1  'x, y, z'
loop_
 _atom_site_type_symbol
 _atom_site_label
 _atom_site_symmetry_multiplicity
 _atom_site_fract_x
 _atom_site_fract_y
 _atom_site_fract_z
 _atom_site_occupancy
  I  I0  1  0.29484737  0.21601555  0.34872037  1
  I  I1  1  0.79484737  0.71601555  0.34872037  1
  I  I2  1  0.29484737  0.78398445  0.84872037  1
  I  I3  1  0.79484737  0.28398445  0.84872037  1
  Li  Li4  1  0.09951639  0.16272509  0.85992718  1
  Li  Li5  1  0.59951639  0.66272509  0.85992718  1
  Li  Li6  1  0.09951639  0.83727491  0.35992718  1
  Li  Li7  1  0.59951639  0.33727491  0.35992718  1
