# generated using pymatgen
data_LiBr
_symmetry_space_group_name_H-M   'P 1'
_cell_length_a   5.42974567
_cell_length_b   7.30605507
_cell_length_c   5.29809523
_cell_angle_alpha   90.00000250
_cell_angle_beta   84.44591124
_cell_angle_gamma   90.00000250
_symmetry_Int_Tables_number   1
_chemical_formula_structural   LiBr
_chemical_formula_sum   'Li4 Br4'
_cell_volume   209.18883175
_cell_formula_units_Z   4
loop_
 _symmetry_equiv_pos_site_id
 _symmetry_equiv_pos_as_xyz
  1  'x, y, z'
loop_
 _atom_site_type_symbol
 _atom_site_label
 _atom_site_symmetry_multiplicity
 _atom_site_fract_x
 _atom_site_fract_y
 _atom_site_fract_z
 _atom_site_occupancy
  Li  Li0  1  0.65492132  0.06140971  0.36012560  1
  Li  Li1  1  0.15492132  0.56140971  0.36012560  1
  Li  Li2  1  0.65492132  0.93859029  0.86012560  1
  Li  Li3  1  0.15492132  0.43859029  0.86012560  1
  Br  Br4  1  0.78997412  0.29245569  0.92553023  1
  Br  Br5  1  0.28997412  0.79245569  0.92553023  1
  Br  Br6  1  0.78997412  0.70754431  0.42553022  1
  Br  Br7  1  0.28997412  0.20754431  0.42553022  1
