# generated using pymatgen
data_LiBr
_symmetry_space_group_name_H-M   'P 1'
_cell_length_a   4.60646582
_cell_length_b   5.85857153
_cell_length_c   7.30211735
_cell_angle_alpha   90.00000250
_cell_angle_beta   115.37924376
_cell_angle_gamma   90.00000250
_symmetry_Int_Tables_number   1
_chemical_formula_structural   LiBr
_chemical_formula_sum   'Li4 Br4'
_cell_volume   178.04592828
_cell_formula_units_Z   4
loop_
 _symmetry_equiv_pos_site_id
 _symmetry_equiv_pos_as_xyz
  1  'x, y, z'
loop_
 _atom_site_type_symbol
 _atom_site_label
 _atom_site_symmetry_multiplicity
 _atom_site_fract_x
 _atom_site_fract_y
 _atom_site_fract_z
 _atom_site_occupancy
  Li  Li0  1  0.65370576  0.34930357  0.98377183  1
  Li  Li1  1  0.15370576  0.84930357  0.98377183  1
  Li  Li2  1  0.65370576  0.65069643  0.48377183  1
  Li  Li3  1  0.15370576  0.15069643  0.48377183  1
  Br  Br4  1  0.98250118  0.77948397  0.19716144  1
  Br  Br5  1  0.48250118  0.27948397  0.19716144  1
  Br  Br6  1  0.98250118  0.22051603  0.69716144  1
  Br  Br7  1  0.48250118  0.72051603  0.69716144  1
