# generated using pymatgen
data_LiBr
_symmetry_space_group_name_H-M   'P 1'
_cell_length_a   5.03594208
_cell_length_b   10.60137177
_cell_length_c   7.20015574
_cell_angle_alpha   90.00000250
_cell_angle_beta   90.00000250
_cell_angle_gamma   90.00000250
_symmetry_Int_Tables_number   1
_chemical_formula_structural   LiBr
_chemical_formula_sum   'Li8 Br8'
_cell_volume   384.40115226
_cell_formula_units_Z   8
loop_
 _symmetry_equiv_pos_site_id
 _symmetry_equiv_pos_as_xyz
  1  'x, y, z'
loop_
 _atom_site_type_symbol
 _atom_site_label
 _atom_site_symmetry_multiplicity
 _atom_site_fract_x
 _atom_site_fract_y
 _atom_site_fract_z
 _atom_site_occupancy
  Br  Br0  1  0.80412140  0.39746729  0.38731876  1
  Br  Br1  1  0.30412140  0.60253271  0.88731876  1
  Br  Br2  1  0.69587860  0.89746729  0.38731876  1
  Br  Br3  1  0.19587860  0.60253271  0.38731876  1
  Br  Br4  1  0.30412140  0.10253271  0.38731876  1
  Br  Br5  1  0.69587860  0.39746729  0.88731876  1
  Br  Br6  1  0.19587860  0.10253271  0.88731876  1
  Br  Br7  1  0.80412140  0.89746729  0.88731876  1
  Li  Li8  1  0.27955955  0.84494841  0.97471505  1
  Li  Li9  1  0.77955955  0.15505159  0.47471505  1
  Li  Li10  1  0.22044045  0.34494841  0.97471505  1
  Li  Li11  1  0.72044045  0.15505159  0.97471505  1
  Li  Li12  1  0.77955955  0.65505159  0.97471505  1
  Li  Li13  1  0.22044045  0.84494841  0.47471505  1
  Li  Li14  1  0.72044045  0.65505159  0.47471505  1
  Li  Li15  1  0.27955955  0.34494841  0.47471505  1
