# generated using pymatgen
data_KCl
_symmetry_space_group_name_H-M   'P 1'
_cell_length_a   4.04362965
_cell_length_b   4.00000000
_cell_length_c   14.99999905
_cell_angle_alpha   90.00000250
_cell_angle_beta   130.00011062
_cell_angle_gamma   90.00000250
_symmetry_Int_Tables_number   1
_chemical_formula_structural   KCl
_chemical_formula_sum   'K4 Cl4'
_cell_volume   185.85568831
_cell_formula_units_Z   4
loop_
 _symmetry_equiv_pos_site_id
 _symmetry_equiv_pos_as_xyz
  1  'x, y, z'
loop_
 _atom_site_type_symbol
 _atom_site_label
 _atom_site_symmetry_multiplicity
 _atom_site_fract_x
 _atom_site_fract_y
 _atom_site_fract_z
 _atom_site_occupancy
  Cl  Cl0  1  0.48665261  0.74358916  0.55801600  1
  Cl  Cl1  1  0.51334739  0.25641084  0.44198400  1
  Cl  Cl2  1  0.51334739  0.74358916  0.44198400  1
  Cl  Cl3  1  0.48665261  0.25641084  0.55801600  1
  K  K4  1  0.00000047  0.00000012  0.99999303  1
  K  K5  1  0.99999953  0.99999988  0.00000697  1
  K  K6  1  0.99999953  0.00000012  0.00000697  1
  K  K7  1  0.00000047  0.99999988  0.99999303  1
