# generated using pymatgen
data_LiBr
_symmetry_space_group_name_H-M   'P 1'
_cell_length_a   4.37552404
_cell_length_b   4.37552404
_cell_length_c   12.22550011
_cell_angle_alpha   90.00000250
_cell_angle_beta   90.00000250
_cell_angle_gamma   90.00000250
_symmetry_Int_Tables_number   1
_chemical_formula_structural   LiBr
_chemical_formula_sum   'Li4 Br4'
_cell_volume   234.05977497
_cell_formula_units_Z   4
loop_
 _symmetry_equiv_pos_site_id
 _symmetry_equiv_pos_as_xyz
  1  'x, y, z'
loop_
 _atom_site_type_symbol
 _atom_site_label
 _atom_site_symmetry_multiplicity
 _atom_site_fract_x
 _atom_site_fract_y
 _atom_site_fract_z
 _atom_site_occupancy
  Br  Br0  1  0.72116041  0.13074744  0.31425357  1
  Br  Br1  1  0.13074744  0.27883959  0.06425357  1
  Br  Br2  1  0.27883959  0.86925256  0.81425357  1
  Br  Br3  1  0.86925256  0.72116041  0.56425357  1
  Li  Li4  1  0.29329613  0.91760921  0.17289525  1
  Li  Li5  1  0.91760921  0.70670387  0.92289525  1
  Li  Li6  1  0.70670387  0.08239079  0.67289525  1
  Li  Li7  1  0.08239079  0.29329613  0.42289525  1
