# generated using pymatgen
data_LiBr
_symmetry_space_group_name_H-M   'P 1'
_cell_length_a   5.18481445
_cell_length_b   5.18481445
_cell_length_c   5.99262905
_cell_angle_alpha   90.00000250
_cell_angle_beta   90.00000250
_cell_angle_gamma   120.00000334
_symmetry_Int_Tables_number   1
_chemical_formula_structural   LiBr
_chemical_formula_sum   'Li3 Br3'
_cell_volume   139.51292707
_cell_formula_units_Z   3
loop_
 _symmetry_equiv_pos_site_id
 _symmetry_equiv_pos_as_xyz
  1  'x, y, z'
loop_
 _atom_site_type_symbol
 _atom_site_label
 _atom_site_symmetry_multiplicity
 _atom_site_fract_x
 _atom_site_fract_y
 _atom_site_fract_z
 _atom_site_occupancy
  Br  Br0  1  0.62447453  0.04522610  0.14041177  1
  Br  Br1  1  0.95477390  0.57924843  0.80707844  1
  Br  Br2  1  0.42075157  0.37552547  0.47374511  1
  Li  Li3  1  0.92570906  0.67010402  0.08936949  1
  Li  Li4  1  0.32989598  0.25560504  0.75603615  1
  Li  Li5  1  0.74439496  0.07429094  0.42270282  1
