# generated using pymatgen
data_LiBr
_symmetry_space_group_name_H-M   'P 1'
_cell_length_a   10.48861408
_cell_length_b   10.48861408
_cell_length_c   7.28628731
_cell_angle_alpha   90.00000250
_cell_angle_beta   90.00000250
_cell_angle_gamma   120.00000334
_symmetry_Int_Tables_number   1
_chemical_formula_structural   LiBr
_chemical_formula_sum   'Li12 Br12'
_cell_volume   694.18163778
_cell_formula_units_Z   12
loop_
 _symmetry_equiv_pos_site_id
 _symmetry_equiv_pos_as_xyz
  1  'x, y, z'
loop_
 _atom_site_type_symbol
 _atom_site_label
 _atom_site_symmetry_multiplicity
 _atom_site_fract_x
 _atom_site_fract_y
 _atom_site_fract_z
 _atom_site_occupancy
  Br  Br0  1  0.11523753  0.40748197  0.60722313  1
  Br  Br1  1  0.70775557  0.11523753  0.60722313  1
  Br  Br2  1  0.29224443  0.40748197  0.10722313  1
  Br  Br3  1  0.88476247  0.29224443  0.10722313  1
  Br  Br4  1  0.11523753  0.70775557  0.10722313  1
  Br  Br5  1  0.40748197  0.11523753  0.10722313  1
  Br  Br6  1  0.70775557  0.59251803  0.10722313  1
  Br  Br7  1  0.59251803  0.88476247  0.10722313  1
  Br  Br8  1  0.59251803  0.70775557  0.60722313  1
  Br  Br9  1  0.88476247  0.59251803  0.60722313  1
  Br  Br10  1  0.29224443  0.88476247  0.60722313  1
  Br  Br11  1  0.40748197  0.29224443  0.60722313  1
  Li  Li12  1  0.58018725  0.91602539  0.80389881  1
  Li  Li13  1  0.66416186  0.58018725  0.80389881  1
  Li  Li14  1  0.33583814  0.91602539  0.30389881  1
  Li  Li15  1  0.41981275  0.33583814  0.30389881  1
  Li  Li16  1  0.58018725  0.66416186  0.30389881  1
  Li  Li17  1  0.91602539  0.58018725  0.30389881  1
  Li  Li18  1  0.66416186  0.08397461  0.30389881  1
  Li  Li19  1  0.08397461  0.41981275  0.30389881  1
  Li  Li20  1  0.08397461  0.66416186  0.80389881  1
  Li  Li21  1  0.41981275  0.08397461  0.80389881  1
  Li  Li22  1  0.33583814  0.41981275  0.80389881  1
  Li  Li23  1  0.91602539  0.33583814  0.80389881  1
