# generated using pymatgen
data_LiBr
_symmetry_space_group_name_H-M   'P 1'
_cell_length_a   11.47334194
_cell_length_b   8.67240238
_cell_length_c   4.61838961
_cell_angle_alpha   90.00000250
_cell_angle_beta   117.30852632
_cell_angle_gamma   90.00000250
_symmetry_Int_Tables_number   1
_chemical_formula_structural   LiBr
_chemical_formula_sum   'Li8 Br8'
_cell_volume   408.32060119
_cell_formula_units_Z   8
loop_
 _symmetry_equiv_pos_site_id
 _symmetry_equiv_pos_as_xyz
  1  'x, y, z'
loop_
 _atom_site_type_symbol
 _atom_site_label
 _atom_site_symmetry_multiplicity
 _atom_site_fract_x
 _atom_site_fract_y
 _atom_site_fract_z
 _atom_site_occupancy
  Br  Br0  1  0.36179200  0.29921097  0.92381334  1
  Br  Br1  1  0.86179200  0.20078903  0.42381334  1
  Br  Br2  1  0.63820800  0.70078903  0.07618666  1
  Br  Br3  1  0.63820800  0.29921097  0.57618666  1
  Br  Br4  1  0.36179200  0.70078903  0.42381334  1
  Br  Br5  1  0.13820800  0.20078903  0.07618666  1
  Br  Br6  1  0.13820800  0.79921097  0.57618666  1
  Br  Br7  1  0.86179200  0.79921097  0.92381334  1
  Li  Li8  1  0.65253472  0.86801340  0.53873406  1
  Li  Li9  1  0.15253472  0.63198660  0.03873406  1
  Li  Li10  1  0.34746528  0.13198660  0.46126594  1
  Li  Li11  1  0.34746528  0.86801340  0.96126594  1
  Li  Li12  1  0.65253472  0.13198660  0.03873406  1
  Li  Li13  1  0.84746528  0.63198660  0.46126594  1
  Li  Li14  1  0.84746528  0.36801340  0.96126594  1
  Li  Li15  1  0.15253472  0.36801340  0.53873406  1
