# generated using pymatgen
data_NaBr
_symmetry_space_group_name_H-M   'P 1'
_cell_length_a   8.07525063
_cell_length_b   4.89853096
_cell_length_c   7.54273558
_cell_angle_alpha   90.00000250
_cell_angle_beta   117.69847548
_cell_angle_gamma   90.00000250
_symmetry_Int_Tables_number   1
_chemical_formula_structural   NaBr
_chemical_formula_sum   'Na4 Br4'
_cell_volume   264.17590757
_cell_formula_units_Z   4
loop_
 _symmetry_equiv_pos_site_id
 _symmetry_equiv_pos_as_xyz
  1  'x, y, z'
loop_
 _atom_site_type_symbol
 _atom_site_label
 _atom_site_symmetry_multiplicity
 _atom_site_fract_x
 _atom_site_fract_y
 _atom_site_fract_z
 _atom_site_occupancy
  Na  Na0  1  0.96314970  0.00682858  0.32564712  1
  Na  Na1  1  0.46314970  0.50682858  0.32564712  1
  Na  Na2  1  0.96314970  0.99317142  0.82564712  1
  Na  Na3  1  0.46314970  0.49317142  0.82564712  1
  Br  Br4  1  0.31990081  0.00015080  0.48397440  1
  Br  Br5  1  0.81990081  0.50015080  0.48397440  1
  Br  Br6  1  0.31990081  0.99984920  0.98397440  1
  Br  Br7  1  0.81990081  0.49984920  0.98397440  1
