# generated using pymatgen
data_LiBr
_symmetry_space_group_name_H-M   'P 1'
_cell_length_a   5.92751980
_cell_length_b   6.22842789
_cell_length_c   9.69397163
_cell_angle_alpha   90.00000250
_cell_angle_beta   90.00000250
_cell_angle_gamma   90.00000250
_symmetry_Int_Tables_number   1
_chemical_formula_structural   LiBr
_chemical_formula_sum   'Li8 Br8'
_cell_volume   357.89299521
_cell_formula_units_Z   8
loop_
 _symmetry_equiv_pos_site_id
 _symmetry_equiv_pos_as_xyz
  1  'x, y, z'
loop_
 _atom_site_type_symbol
 _atom_site_label
 _atom_site_symmetry_multiplicity
 _atom_site_fract_x
 _atom_site_fract_y
 _atom_site_fract_z
 _atom_site_occupancy
  Br  Br0  1  0.25304091  0.91504005  0.64250469  1
  Br  Br1  1  0.25304091  0.58495995  0.14250469  1
  Br  Br2  1  0.75304091  0.58495995  0.35749531  1
  Br  Br3  1  0.24695909  0.08495995  0.14250469  1
  Br  Br4  1  0.74695909  0.41504005  0.85749531  1
  Br  Br5  1  0.24695909  0.41504005  0.64250469  1
  Br  Br6  1  0.75304091  0.91504005  0.85749531  1
  Br  Br7  1  0.74695909  0.08495995  0.35749531  1
  Li  Li8  1  0.69241866  0.34479874  0.12576550  1
  Li  Li9  1  0.69241866  0.15520126  0.62576550  1
  Li  Li10  1  0.19241866  0.15520126  0.87423450  1
  Li  Li11  1  0.80758134  0.65520126  0.62576550  1
  Li  Li12  1  0.30758134  0.84479874  0.37423450  1
  Li  Li13  1  0.80758134  0.84479874  0.12576550  1
  Li  Li14  1  0.19241866  0.34479874  0.37423450  1
  Li  Li15  1  0.30758134  0.65520126  0.87423450  1
