# generated using pymatgen
data_LiBr
_symmetry_space_group_name_H-M   'P 1'
_cell_length_a   7.43100882
_cell_length_b   7.43100882
_cell_length_c   5.69888401
_cell_angle_alpha   90.00000250
_cell_angle_beta   90.00000250
_cell_angle_gamma   120.00000334
_symmetry_Int_Tables_number   1
_chemical_formula_structural   LiBr
_chemical_formula_sum   'Li6 Br6'
_cell_volume   272.53104908
_cell_formula_units_Z   6
loop_
 _symmetry_equiv_pos_site_id
 _symmetry_equiv_pos_as_xyz
  1  'x, y, z'
loop_
 _atom_site_type_symbol
 _atom_site_label
 _atom_site_symmetry_multiplicity
 _atom_site_fract_x
 _atom_site_fract_y
 _atom_site_fract_z
 _atom_site_occupancy
  Br  Br0  1  0.73352915  0.07921779  0.59212911  1
  Br  Br1  1  0.65431136  0.73352915  0.09212911  1
  Br  Br2  1  0.34568864  0.26647085  0.59212911  1
  Br  Br3  1  0.07921779  0.34568864  0.09212911  1
  Br  Br4  1  0.92078221  0.65431136  0.59212911  1
  Br  Br5  1  0.26647085  0.92078221  0.09212911  1
  Li  Li6  1  0.35257833  0.17242038  0.08208965  1
  Li  Li7  1  0.18015794  0.35257833  0.58208965  1
  Li  Li8  1  0.81984206  0.64742167  0.08208965  1
  Li  Li9  1  0.17242038  0.81984206  0.58208965  1
  Li  Li10  1  0.82757962  0.18015794  0.08208965  1
  Li  Li11  1  0.64742167  0.82757962  0.58208965  1
