# generated using pymatgen
data_NaBr
_symmetry_space_group_name_H-M   'P 1'
_cell_length_a   4.31372452
_cell_length_b   4.31372452
_cell_length_c   13.80612850
_cell_angle_alpha   90.00000250
_cell_angle_beta   90.00000250
_cell_angle_gamma   90.00000250
_symmetry_Int_Tables_number   1
_chemical_formula_structural   NaBr
_chemical_formula_sum   'Na4 Br4'
_cell_volume   256.90746568
_cell_formula_units_Z   4
loop_
 _symmetry_equiv_pos_site_id
 _symmetry_equiv_pos_as_xyz
  1  'x, y, z'
loop_
 _atom_site_type_symbol
 _atom_site_label
 _atom_site_symmetry_multiplicity
 _atom_site_fract_x
 _atom_site_fract_y
 _atom_site_fract_z
 _atom_site_occupancy
  Br  Br0  1  0.45425254  0.77605653  0.60595289  1
  Br  Br1  1  0.77605653  0.54574746  0.85595289  1
  Br  Br2  1  0.54574746  0.22394347  0.10595289  1
  Br  Br3  1  0.22394347  0.45425254  0.35595289  1
  Na  Na4  1  0.76707584  0.89970893  0.29759572  1
  Na  Na5  1  0.89970893  0.23292416  0.54759572  1
  Na  Na6  1  0.23292416  0.10029107  0.79759572  1
  Na  Na7  1  0.10029107  0.76707584  0.04759572  1
