# generated using pymatgen
data_LiBr
_symmetry_space_group_name_H-M   'P 1'
_cell_length_a   4.55434704
_cell_length_b   5.82178450
_cell_length_c   8.19236565
_cell_angle_alpha   90.00000250
_cell_angle_beta   110.35718325
_cell_angle_gamma   90.00000250
_symmetry_Int_Tables_number   1
_chemical_formula_structural   LiBr
_chemical_formula_sum   'Li4 Br4'
_cell_volume   203.64905756
_cell_formula_units_Z   4
loop_
 _symmetry_equiv_pos_site_id
 _symmetry_equiv_pos_as_xyz
  1  'x, y, z'
loop_
 _atom_site_type_symbol
 _atom_site_label
 _atom_site_symmetry_multiplicity
 _atom_site_fract_x
 _atom_site_fract_y
 _atom_site_fract_z
 _atom_site_occupancy
  Li  Li0  1  0.44718623  0.44719570  0.77418181  1
  Li  Li1  1  0.94718623  0.94719570  0.77418181  1
  Li  Li2  1  0.44718623  0.55280429  0.27418181  1
  Li  Li3  1  0.94718623  0.05280430  0.27418181  1
  Br  Br4  1  0.85674313  0.38067815  0.96565530  1
  Br  Br5  1  0.35674313  0.88067815  0.96565530  1
  Br  Br6  1  0.85674313  0.61932185  0.46565530  1
  Br  Br7  1  0.35674313  0.11932185  0.46565530  1
