# generated using pymatgen
data_NaI
_symmetry_space_group_name_H-M   'P 1'
_cell_length_a   5.48108721
_cell_length_b   11.39036560
_cell_length_c   5.95813560
_cell_angle_alpha   90.00000250
_cell_angle_beta   90.00000250
_cell_angle_gamma   90.00000250
_symmetry_Int_Tables_number   1
_chemical_formula_structural   NaI
_chemical_formula_sum   'Na4 I4'
_cell_volume   371.97586248
_cell_formula_units_Z   4
loop_
 _symmetry_equiv_pos_site_id
 _symmetry_equiv_pos_as_xyz
  1  'x, y, z'
loop_
 _atom_site_type_symbol
 _atom_site_label
 _atom_site_symmetry_multiplicity
 _atom_site_fract_x
 _atom_site_fract_y
 _atom_site_fract_z
 _atom_site_occupancy
  Na  Na0  1  0.71100682  0.94592756  0.03504890  1
  Na  Na1  1  0.28899318  0.44592756  0.46495110  1
  Na  Na2  1  0.78899318  0.05407244  0.53504890  1
  Na  Na3  1  0.21100682  0.55407244  0.96495110  1
  I  I4  1  0.65669723  0.31705195  0.86987902  1
  I  I5  1  0.34330277  0.81705195  0.63012098  1
  I  I6  1  0.84330277  0.68294805  0.36987902  1
  I  I7  1  0.15669723  0.18294805  0.13012098  1
