# generated using pymatgen
data_LiBr
_symmetry_space_group_name_H-M   'P 1'
_cell_length_a   6.22567844
_cell_length_b   7.96240044
_cell_length_c   4.11500311
_cell_angle_alpha   90.00000250
_cell_angle_beta   90.00000250
_cell_angle_gamma   90.00000250
_symmetry_Int_Tables_number   1
_chemical_formula_structural   LiBr
_chemical_formula_sum   'Li4 Br4'
_cell_volume   203.98623780
_cell_formula_units_Z   4
loop_
 _symmetry_equiv_pos_site_id
 _symmetry_equiv_pos_as_xyz
  1  'x, y, z'
loop_
 _atom_site_type_symbol
 _atom_site_label
 _atom_site_symmetry_multiplicity
 _atom_site_fract_x
 _atom_site_fract_y
 _atom_site_fract_z
 _atom_site_occupancy
  Li  Li0  1  0.75775528  0.25974202  0.08302927  1
  Li  Li1  1  0.25775528  0.24025798  0.08302927  1
  Li  Li2  1  0.24224472  0.74025798  0.58302927  1
  Li  Li3  1  0.74224472  0.75974202  0.58302927  1
  Br  Br4  1  0.71085429  0.61434900  0.15292287  1
  Br  Br5  1  0.21085429  0.88565100  0.15292287  1
  Br  Br6  1  0.28914571  0.38565100  0.65292287  1
  Br  Br7  1  0.78914571  0.11434900  0.65292287  1
