# generated using pymatgen
data_KI
_symmetry_space_group_name_H-M   'P 1'
_cell_length_a   14.79272938
_cell_length_b   14.79272938
_cell_length_c   14.99961948
_cell_angle_alpha   90.00000250
_cell_angle_beta   90.00000250
_cell_angle_gamma   120.00000334
_symmetry_Int_Tables_number   1
_chemical_formula_structural   KI
_chemical_formula_sum   'K18 I18'
_cell_volume   2842.54588159
_cell_formula_units_Z   18
loop_
 _symmetry_equiv_pos_site_id
 _symmetry_equiv_pos_as_xyz
  1  'x, y, z'
loop_
 _atom_site_type_symbol
 _atom_site_label
 _atom_site_symmetry_multiplicity
 _atom_site_fract_x
 _atom_site_fract_y
 _atom_site_fract_z
 _atom_site_occupancy
  I  I0  1  0.83089216  0.93141382  0.92691429  1
  I  I1  1  0.83089216  0.89947834  0.42691429  1
  I  I2  1  0.40191951  0.83577451  0.09358096  1
  I  I3  1  0.43385500  0.59808049  0.09358096  1
  I  I4  1  0.73525285  0.23281167  0.26024763  1
  I  I5  1  0.06858618  0.89947834  0.92691429  1
  I  I6  1  0.43385500  0.83577451  0.59358096  1
  I  I7  1  0.40191951  0.56614500  0.59358096  1
  I  I8  1  0.10052166  0.16910784  0.92691429  1
  I  I9  1  0.10052166  0.93141382  0.42691429  1
  I  I10  1  0.16422549  0.59808049  0.59358096  1
  I  I11  1  0.16422549  0.56614500  0.09358096  1
  I  I12  1  0.76718833  0.50244118  0.26024763  1
  I  I13  1  0.76718833  0.26474715  0.76024763  1
  I  I14  1  0.06858618  0.16910784  0.42691429  1
  I  I15  1  0.73525285  0.50244118  0.76024763  1
  I  I16  1  0.49755882  0.26474715  0.26024763  1
  I  I17  1  0.49755882  0.23281167  0.76024763  1
  K  K18  1  0.15003199  0.33595022  0.21229466  1
  K  K19  1  0.15003199  0.81408178  0.71229466  1
  K  K20  1  0.99738312  0.51663467  0.37896132  1
  K  K21  1  0.51925156  0.00261688  0.37896132  1
  K  K22  1  0.33071645  0.14741511  0.54562799  1
  K  K23  1  0.66404978  0.81408178  0.21229466  1
  K  K24  1  0.51925156  0.51663467  0.87896132  1
  K  K25  1  0.99738312  0.48074844  0.87896132  1
  K  K26  1  0.18591822  0.84996801  0.21229466  1
  K  K27  1  0.18591822  0.33595022  0.71229466  1
  K  K28  1  0.48336533  0.00261688  0.87896132  1
  K  K29  1  0.48336533  0.48074844  0.37896132  1
  K  K30  1  0.85258489  0.18330134  0.54562799  1
  K  K31  1  0.85258489  0.66928355  0.04562799  1
  K  K32  1  0.66404978  0.84996801  0.71229466  1
  K  K33  1  0.33071645  0.18330134  0.04562799  1
  K  K34  1  0.81669866  0.66928355  0.54562799  1
  K  K35  1  0.81669866  0.14741511  0.04562799  1
