# generated using pymatgen
data_LiI
_symmetry_space_group_name_H-M   'P 1'
_cell_length_a   4.95041275
_cell_length_b   14.30204391
_cell_length_c   4.51745510
_cell_angle_alpha   90.00000250
_cell_angle_beta   90.00000250
_cell_angle_gamma   90.00000250
_symmetry_Int_Tables_number   1
_chemical_formula_structural   LiI
_chemical_formula_sum   'Li4 I4'
_cell_volume   319.84043144
_cell_formula_units_Z   4
loop_
 _symmetry_equiv_pos_site_id
 _symmetry_equiv_pos_as_xyz
  1  'x, y, z'
loop_
 _atom_site_type_symbol
 _atom_site_label
 _atom_site_symmetry_multiplicity
 _atom_site_fract_x
 _atom_site_fract_y
 _atom_site_fract_z
 _atom_site_occupancy
  Li  Li0  1  0.17305112  0.69651723  0.56972495  1
  Li  Li1  1  0.82694888  0.19651723  0.93027505  1
  Li  Li2  1  0.32694888  0.30348277  0.06972495  1
  Li  Li3  1  0.67305112  0.80348277  0.43027505  1
  I  I4  1  0.24084556  0.11260930  0.36382610  1
  I  I5  1  0.75915444  0.61260930  0.13617390  1
  I  I6  1  0.25915444  0.88739070  0.86382610  1
  I  I7  1  0.74084556  0.38739070  0.63617390  1
