# generated using pymatgen
data_LiBr
_symmetry_space_group_name_H-M   'P 1'
_cell_length_a   4.02809572
_cell_length_b   11.95112228
_cell_length_c   5.49534035
_cell_angle_alpha   90.00000250
_cell_angle_beta   125.13906499
_cell_angle_gamma   90.00000250
_symmetry_Int_Tables_number   1
_chemical_formula_structural   LiBr
_chemical_formula_sum   'Li4 Br4'
_cell_volume   216.33540136
_cell_formula_units_Z   4
loop_
 _symmetry_equiv_pos_site_id
 _symmetry_equiv_pos_as_xyz
  1  'x, y, z'
loop_
 _atom_site_type_symbol
 _atom_site_label
 _atom_site_symmetry_multiplicity
 _atom_site_fract_x
 _atom_site_fract_y
 _atom_site_fract_z
 _atom_site_occupancy
  Li  Li0  1  0.55480406  0.35495101  0.66097617  1
  Li  Li1  1  0.05480406  0.85495101  0.66097617  1
  Li  Li2  1  0.55480406  0.64504899  0.16097617  1
  Li  Li3  1  0.05480406  0.14504899  0.16097617  1
  Br  Br4  1  0.20377243  0.84879494  0.12963641  1
  Br  Br5  1  0.70377243  0.34879494  0.12963641  1
  Br  Br6  1  0.20377243  0.15120506  0.62963641  1
  Br  Br7  1  0.70377243  0.65120506  0.62963641  1
