# generated using pymatgen
data_LiBr
_symmetry_space_group_name_H-M   'P 1'
_cell_length_a   8.33940315
_cell_length_b   4.39331007
_cell_length_c   5.57833290
_cell_angle_alpha   90.00000250
_cell_angle_beta   90.00000250
_cell_angle_gamma   90.00000250
_symmetry_Int_Tables_number   1
_chemical_formula_structural   LiBr
_chemical_formula_sum   'Li4 Br4'
_cell_volume   204.37663939
_cell_formula_units_Z   4
loop_
 _symmetry_equiv_pos_site_id
 _symmetry_equiv_pos_as_xyz
  1  'x, y, z'
loop_
 _atom_site_type_symbol
 _atom_site_label
 _atom_site_symmetry_multiplicity
 _atom_site_fract_x
 _atom_site_fract_y
 _atom_site_fract_z
 _atom_site_occupancy
  Br  Br0  1  0.64506292  0.38091186  0.33334732  1
  Br  Br1  1  0.14506292  0.61908814  0.33334732  1
  Br  Br2  1  0.35493708  0.61908814  0.83334732  1
  Br  Br3  1  0.85493708  0.38091186  0.83334732  1
  Li  Li4  1  0.75710827  0.81522352  0.20856923  1
  Li  Li5  1  0.25710827  0.18477648  0.20856923  1
  Li  Li6  1  0.24289173  0.18477648  0.70856923  1
  Li  Li7  1  0.74289173  0.81522352  0.70856923  1
