# generated using pymatgen
data_LiBr
_symmetry_space_group_name_H-M   'P 1'
_cell_length_a   10.62867832
_cell_length_b   4.93743801
_cell_length_c   8.66457748
_cell_angle_alpha   90.00000250
_cell_angle_beta   90.00000250
_cell_angle_gamma   90.00000250
_symmetry_Int_Tables_number   1
_chemical_formula_structural   LiBr
_chemical_formula_sum   'Li8 Br8'
_cell_volume   454.70351270
_cell_formula_units_Z   8
loop_
 _symmetry_equiv_pos_site_id
 _symmetry_equiv_pos_as_xyz
  1  'x, y, z'
loop_
 _atom_site_type_symbol
 _atom_site_label
 _atom_site_symmetry_multiplicity
 _atom_site_fract_x
 _atom_site_fract_y
 _atom_site_fract_z
 _atom_site_occupancy
  Br  Br0  1  0.86383663  0.71753383  0.02880490  1
  Br  Br1  1  0.86383663  0.28246617  0.52880490  1
  Br  Br2  1  0.36383663  0.78246617  0.97119510  1
  Br  Br3  1  0.63616337  0.78246617  0.52880490  1
  Br  Br4  1  0.13616337  0.71753383  0.47119510  1
  Br  Br5  1  0.63616337  0.21753383  0.02880490  1
  Br  Br6  1  0.36383663  0.21753383  0.47119510  1
  Br  Br7  1  0.13616337  0.28246617  0.97119510  1
  Li  Li8  1  0.11769700  0.87014329  0.96454084  1
  Li  Li9  1  0.11769700  0.12985671  0.46454084  1
  Li  Li10  1  0.61769700  0.62985671  0.03545916  1
  Li  Li11  1  0.38230300  0.62985671  0.46454084  1
  Li  Li12  1  0.88230300  0.87014329  0.53545916  1
  Li  Li13  1  0.38230300  0.37014329  0.96454084  1
  Li  Li14  1  0.61769700  0.37014329  0.53545916  1
  Li  Li15  1  0.88230300  0.12985671  0.03545916  1
