# generated using pymatgen
data_KBr
_symmetry_space_group_name_H-M   'P 1'
_cell_length_a   6.16875410
_cell_length_b   4.22619057
_cell_length_c   12.52448273
_cell_angle_alpha   90.00000250
_cell_angle_beta   121.43942473
_cell_angle_gamma   90.00000250
_symmetry_Int_Tables_number   1
_chemical_formula_structural   KBr
_chemical_formula_sum   'K4 Br4'
_cell_volume   278.58206621
_cell_formula_units_Z   4
loop_
 _symmetry_equiv_pos_site_id
 _symmetry_equiv_pos_as_xyz
  1  'x, y, z'
loop_
 _atom_site_type_symbol
 _atom_site_label
 _atom_site_symmetry_multiplicity
 _atom_site_fract_x
 _atom_site_fract_y
 _atom_site_fract_z
 _atom_site_occupancy
  Br  Br0  1  0.53679981  0.96599567  0.77360120  1
  Br  Br1  1  0.03679981  0.46599567  0.77360120  1
  Br  Br2  1  0.53679981  0.03400433  0.27360120  1
  Br  Br3  1  0.03679981  0.53400433  0.27360120  1
  K  K4  1  0.00863194  0.92484957  0.56433761  1
  K  K5  1  0.50863194  0.42484957  0.56433761  1
  K  K6  1  0.00863194  0.07515043  0.06433761  1
  K  K7  1  0.50863194  0.57515043  0.06433761  1
