# generated using pymatgen
data_Na2O2
_symmetry_space_group_name_H-M   'P 1'
_cell_length_a   4.14414978
_cell_length_b   4.81174564
_cell_length_c   4.83894157
_cell_angle_alpha   90.00000250
_cell_angle_beta   90.00000250
_cell_angle_gamma   90.00000250
_symmetry_Int_Tables_number   1
_chemical_formula_structural   Na2O2
_chemical_formula_sum   'Na4 O4'
_cell_volume   96.49137247
_cell_formula_units_Z   2
loop_
 _symmetry_equiv_pos_site_id
 _symmetry_equiv_pos_as_xyz
  1  'x, y, z'
loop_
 _atom_site_type_symbol
 _atom_site_label
 _atom_site_symmetry_multiplicity
 _atom_site_fract_x
 _atom_site_fract_y
 _atom_site_fract_z
 _atom_site_occupancy
  O  O0  1  0.26996434  0.49381113  0.47776979  1
  O  O1  1  0.76996434  0.00618887  0.47776979  1
  O  O2  1  0.73003566  0.50618887  0.97776979  1
  O  O3  1  0.23003566  0.99381113  0.97776979  1
  Na  Na4  1  0.76663887  0.93438870  0.07635707  1
  Na  Na5  1  0.26663888  0.56561130  0.07635707  1
  Na  Na6  1  0.23336113  0.06561130  0.57635707  1
  Na  Na7  1  0.73336112  0.43438870  0.57635707  1
