# generated using pymatgen
data_LiBr
_symmetry_space_group_name_H-M   'P 1'
_cell_length_a   10.90061951
_cell_length_b   10.90061951
_cell_length_c   8.38052273
_cell_angle_alpha   90.00000250
_cell_angle_beta   90.00000250
_cell_angle_gamma   120.00000334
_symmetry_Int_Tables_number   1
_chemical_formula_structural   LiBr
_chemical_formula_sum   'Li18 Br18'
_cell_volume   862.39074372
_cell_formula_units_Z   18
loop_
 _symmetry_equiv_pos_site_id
 _symmetry_equiv_pos_as_xyz
  1  'x, y, z'
loop_
 _atom_site_type_symbol
 _atom_site_label
 _atom_site_symmetry_multiplicity
 _atom_site_fract_x
 _atom_site_fract_y
 _atom_site_fract_z
 _atom_site_occupancy
  Br  Br0  1  0.31132872  0.82729038  0.30219336  1
  Br  Br1  1  0.31132872  0.48403834  0.80219336  1
  Br  Br2  1  0.50604296  0.35533795  0.46886003  1
  Br  Br3  1  0.84929499  0.49395704  0.46886003  1
  Br  Br4  1  0.83937629  0.81737168  0.63552670  1
  Br  Br5  1  0.17270962  0.48403834  0.30219336  1
  Br  Br6  1  0.84929499  0.35533795  0.96886003  1
  Br  Br7  1  0.50604296  0.15070501  0.96886003  1
  Br  Br8  1  0.51596166  0.68867128  0.30219336  1
  Br  Br9  1  0.51596166  0.82729038  0.80219336  1
  Br  Br10  1  0.64466205  0.49395704  0.96886003  1
  Br  Br11  1  0.64466205  0.15070501  0.46886003  1
  Br  Br12  1  0.18262832  0.02200461  0.63552670  1
  Br  Br13  1  0.18262832  0.16062371  0.13552670  1
  Br  Br14  1  0.17270962  0.68867128  0.80219336  1
  Br  Br15  1  0.83937629  0.02200461  0.13552670  1
  Br  Br16  1  0.97799539  0.16062371  0.63552670  1
  Br  Br17  1  0.97799539  0.81737168  0.13552670  1
  Li  Li18  1  0.69145973  0.19337585  0.13643004  1
  Li  Li19  1  0.69145973  0.49808388  0.63643004  1
  Li  Li20  1  0.13995749  0.97520694  0.30309671  1
  Li  Li21  1  0.83524945  0.86004251  0.30309671  1
  Li  Li22  1  0.47329082  0.83141721  0.46976338  1
  Li  Li23  1  0.80662415  0.49808388  0.13643004  1
  Li  Li24  1  0.83524945  0.97520694  0.80309671  1
  Li  Li25  1  0.13995749  0.16475055  0.80309671  1
  Li  Li26  1  0.50191612  0.30854027  0.13643004  1
  Li  Li27  1  0.50191612  0.19337585  0.63643004  1
  Li  Li28  1  0.02479306  0.86004251  0.80309671  1
  Li  Li29  1  0.02479306  0.16475055  0.30309671  1
  Li  Li30  1  0.16858279  0.64187361  0.46976338  1
  Li  Li31  1  0.16858279  0.52670918  0.96976338  1
  Li  Li32  1  0.80662415  0.30854027  0.63643004  1
  Li  Li33  1  0.47329082  0.64187361  0.96976338  1
  Li  Li34  1  0.35812639  0.52670918  0.46976338  1
  Li  Li35  1  0.35812639  0.83141721  0.96976338  1
