# generated using pymatgen
data_LiBr
_symmetry_space_group_name_H-M   'P 1'
_cell_length_a   7.00215340
_cell_length_b   7.00215340
_cell_length_c   7.46214199
_cell_angle_alpha   90.00000250
_cell_angle_beta   90.00000250
_cell_angle_gamma   120.00000334
_symmetry_Int_Tables_number   1
_chemical_formula_structural   LiBr
_chemical_formula_sum   'Li6 Br6'
_cell_volume   316.85266698
_cell_formula_units_Z   6
loop_
 _symmetry_equiv_pos_site_id
 _symmetry_equiv_pos_as_xyz
  1  'x, y, z'
loop_
 _atom_site_type_symbol
 _atom_site_label
 _atom_site_symmetry_multiplicity
 _atom_site_fract_x
 _atom_site_fract_y
 _atom_site_fract_z
 _atom_site_occupancy
  Li  Li0  1  0.44014575  0.27188009  0.28427972  1
  Li  Li1  1  0.16826566  0.44014575  0.11761306  1
  Li  Li2  1  0.83173434  0.55985425  0.61761306  1
  Li  Li3  1  0.27188009  0.83173434  0.45094639  1
  Li  Li4  1  0.72811991  0.16826566  0.95094639  1
  Li  Li5  1  0.55985425  0.72811991  0.78427972  1
  Br  Br6  1  0.43023610  0.45432943  0.49867598  1
  Br  Br7  1  0.97590667  0.43023610  0.33200931  1
  Br  Br8  1  0.02409333  0.56976390  0.83200931  1
  Br  Br9  1  0.45432943  0.02409333  0.66534264  1
  Br  Br10  1  0.54567057  0.97590667  0.16534264  1
  Br  Br11  1  0.56976390  0.54567057  0.99867598  1
